geometry optimzed in LAMMPS
_audit_creation_date              2020-11-30 
_audit_creation_method            'lammps2cif' 
_symmetry_space_group_name_H-M    'P1' 
_symmetry_Int_Tables_number       1 
_symmetry_cell_setting            triclinic 
loop_ 
_symmetry_equiv_pos_as_xyz 
  x,y,z 
_cell_length_a                    60.14698247 
_cell_length_b                    60.60055947287626 
_cell_length_c                    59.890148636386336 
_cell_angle_alpha                 90.46896321358594 
_cell_angle_beta                  89.88008841885517 
_cell_angle_gamma                 90.62223087061096 
loop_ 
_atom_site_label 
_atom_site_type_symbol 
_atom_site_fract_x 
_atom_site_fract_y 
_atom_site_fract_z 
_atom_site_charge 
N1          N  0.75043844  0.91428194  0.44234118    -0.03400
C2          C  0.76445548  0.89681367  0.43958336    -0.00800
C3          C  0.75475793  0.88048296  0.42661723    -0.23700
C4          C  0.73423705  0.88778043  0.42087198    -0.23900
C5          C  0.73184488  0.90844978  0.43041382    -0.00900
H6          H  0.76203781  0.86491669  0.42170545     0.12900
H7          H  0.72271420  0.87948069  0.40966589     0.12900
N8          N  0.76130392  0.92117233  0.54074039    -0.03400
C9          C  0.78099216  0.91483596  0.55000567    -0.00800
C10         C  0.77866188  0.91190059  0.57270740    -0.23700
C11         C  0.75680745  0.91502092  0.57764455    -0.23900
C12         C  0.74612976  0.92003164  0.55790810    -0.00900
H13         H  0.79095936  0.90534390  0.58396050     0.12900
H14         H  0.74913926  0.91246014  0.59379999     0.12900
N15         N  0.75502081  0.01508976  0.44185220    -0.03400
C16         C  0.73612469  0.02236300  0.43166557    -0.00800
C17         C  0.73943583  0.04329313  0.42326016    -0.23700
C18         C  0.76091562  0.04908614  0.42761588    -0.23900
C19         C  0.77023797  0.03175356  0.43894026    -0.00900
H20         H  0.72794742  0.05255164  0.41317977     0.12900
H21         H  0.76891379  0.06459181  0.42337759     0.12900
N22         N  0.76771062  0.01106238  0.53963123    -0.03400
C23         C  0.75521545  0.01182104  0.55872538    -0.00800
C24         C  0.76724427  0.02057624  0.57629563    -0.23700
C25         C  0.78784250  0.02530325  0.56834069    -0.23900
C26         C  0.78768885  0.02046323  0.54573080    -0.00900
H27         H  0.76160435  0.02289500  0.59332668     0.12900
H28         H  0.80069151  0.03421905  0.57742943     0.12900
O29         O  0.77776979  0.94119932  0.51091693    -0.72900
O30         O  0.77520601  0.98811970  0.46198990    -0.73900
O31         O  0.78079221  0.98864072  0.50981624    -0.62500
O32         O  0.77270396  0.93979778  0.46296682    -0.70900
O33         O  0.73614165  0.94203553  0.46640492    -0.70400
O34         O  0.74444429  0.98953575  0.51526230    -0.61700
O35         O  0.73876167  0.98959153  0.46685111    -0.74200
O36         O  0.74123902  0.94199387  0.51422362    -0.73000
Cu37       Cu  0.77784252  0.96434726  0.48611642     1.04600
Cu38       Cu  0.73891577  0.96587422  0.49068826     1.04300
C39         C  0.75993273  0.93472366  0.52081893     0.93300
C40         C  0.75640989  0.99664357  0.45714197     0.92500
C41         C  0.76408381  0.99627840  0.52055623     0.84600
C42         C  0.75320665  0.93295209  0.45753666     0.90900
N43         N  0.96198813  0.72902092  0.41423144    -0.03400
C44         C  0.94577027  0.74471746  0.41235445    -0.00800
C45         C  0.93079480  0.73908558  0.39579454    -0.23700
C46         C  0.93716252  0.71931574  0.38731773    -0.23900
C47         C  0.95634222  0.71352717  0.39834897    -0.00900
H48         H  0.91586624  0.74786508  0.39138374     0.12900
H49         H  0.92917466  0.71039435  0.37374696     0.12900
N50         N  0.95814199  0.72714862  0.50489712    -0.03400
C51         C  0.94355103  0.74406370  0.50210229    -0.00800
C52         C  0.92219902  0.73568330  0.49987077    -0.23700
C53         C  0.92326147  0.71338534  0.50238870    -0.23900
C54         C  0.94520300  0.70852275  0.50652151    -0.00900
H55         H  0.90701990  0.74513411  0.49982461     0.12900
H56         H  0.90908220  0.70253857  0.50498970     0.12900
N57         N  0.06334745  0.72741925  0.41607023    -0.03400
C58         C  0.07043369  0.70994136  0.40340929    -0.00800
C59         C  0.08852315  0.71593264  0.39052732    -0.23700
C60         C  0.09287906  0.73762086  0.39498955    -0.23900
C61         C  0.07752498  0.74441647  0.41070916    -0.00900
H62         H  0.09694622  0.70579757  0.37825147     0.12900
H63         H  0.10657126  0.74726147  0.38829400     0.12900
N64         N  0.05653933  0.72526934  0.51477604    -0.03400
C65         C  0.05542195  0.71041871  0.53179625    -0.00800
C66         C  0.07071949  0.71543890  0.54821549    -0.23700
C67         C  0.08178206  0.73393859  0.54152954    -0.23900
C68         C  0.07314688  0.73967571  0.52103782    -0.00900
H69         H  0.07312739  0.70678185  0.56375131     0.12900
H70         H  0.09507619  0.74226510  0.55051547     0.12900
O71         O  0.03676651  0.70919466  0.43895957    -0.72900
O72         O  0.98592087  0.70839360  0.48416389    -0.73900
O73         O  0.98831973  0.70977349  0.43628546    -0.62500
O74         O  0.03372739  0.70804374  0.48730431    -0.70900
O75         O  0.03636541  0.74449819  0.48725812    -0.70400
O76         O  0.98820674  0.74619038  0.43888801    -0.61700
O77         O  0.98863662  0.74461996  0.48699124    -0.74200
O78         O  0.03718913  0.74572330  0.43935463    -0.73000
Cu79       Cu  0.01130174  0.70759473  0.46159602     1.04600
Cu80       Cu  0.01269299  0.74647677  0.46309383     1.04300
C81         C  0.04509467  0.72747977  0.43205778     0.93300
C82         C  0.97878092  0.72663054  0.49224354     0.92500
C83         C  0.98028028  0.72832058  0.43025580     0.84600
C84         C  0.04200149  0.72596363  0.49546200     0.90900
N85         N  0.25363332  0.94973454  0.43916913    -0.03400
C86         C  0.23592610  0.93743760  0.43137947    -0.00800
C87         C  0.24114495  0.92739852  0.41129066    -0.23700
C88         C  0.26249486  0.93304592  0.40642899    -0.23900
C89         C  0.26984355  0.94669577  0.42346115    -0.00900
H90         H  0.23081667  0.91596108  0.40183724     0.12900
H91         H  0.27162344  0.92829682  0.39157860     0.12900
N92         N  0.24084988  0.94204429  0.53731261    -0.03400
C93         C  0.22002574  0.93399885  0.54168962    -0.00800
C94         C  0.21925054  0.92547953  0.56304242    -0.23700
C95         C  0.24031257  0.92659638  0.57135160    -0.23900
C96         C  0.25332288  0.93688943  0.55543698    -0.00900
H97         H  0.20564826  0.91616407  0.57036979     0.12900
H98         H  0.24571552  0.92024597  0.58726456     0.12900
N99         N  0.27242000  0.04605816  0.45460255    -0.03400
C100        C  0.25994147  0.06461271  0.45218433    -0.00800
C101        C  0.27275482  0.08164380  0.44373363    -0.23700
C102        C  0.29378175  0.07389392  0.44132920    -0.23900
C103        C  0.29336791  0.05195859  0.44750694    -0.00900
H104        H  0.26729858  0.09813298  0.43982414     0.12900
H105        H  0.30742409  0.08260913  0.43336643     0.12900
N106        N  0.25590615  0.03513973  0.54857763    -0.03400
C107        C  0.23951909  0.04988960  0.55393176    -0.00800
C108        C  0.24466200  0.06138131  0.57327875    -0.20100
C109        C  0.26480468  0.05440480  0.58003141    -0.23900
C110        C  0.27131266  0.03801177  0.56530178    -0.00900
H111        H  0.23514502  0.07447173  0.58099252     0.12900
H112        H  0.27336098  0.05978911  0.59504549     0.12900
O113        O  0.27284958  0.96825978  0.46875110    -0.72900
O114        O  0.27408422  0.00993330  0.52367401    -0.73900
O115        O  0.26642057  0.96347491  0.51644313    -0.62500
O116        O  0.28172221  0.01480226  0.47591563    -0.70900
O117        O  0.24598889  0.02141050  0.47084566    -0.70400
O118        O  0.23055481  0.96998537  0.51206473    -0.61700
O119        O  0.23856887  0.01678602  0.51799652    -0.74200
O120        O  0.23683334  0.97434521  0.46489780    -0.73000
Cu121      Cu  0.27500715  0.98886581  0.49628082     1.04600
Cu122      Cu  0.23679556  0.99582746  0.49124189     1.04300
C123        C  0.25446202  0.96454642  0.45841318     0.93300
C124        C  0.25627038  0.02001990  0.52943675     0.92500
C125        C  0.24614667  0.95880952  0.52098045     0.84600
C126        C  0.26644639  0.02647911  0.46723862     0.90900
N127        N  0.44852848  0.92992741  0.23487322    -0.03400
C128        C  0.43212052  0.92998649  0.25075490    -0.00800
C129        C  0.41376771  0.91798086  0.24385980    -0.23700
C130        C  0.41839349  0.91026739  0.22309126    -0.23900
C131        C  0.43972994  0.91724743  0.21789874    -0.00900
H132        H  0.39830479  0.91567339  0.25287683     0.12900
H133        H  0.40790206  0.89925063  0.21330991     0.12900
N134        N  0.54838505  0.92158818  0.23173521    -0.03400
C135        C  0.55198608  0.90708726  0.21441946    -0.00800
C136        C  0.56983590  0.89370316  0.21886145    -0.23700
C137        C  0.57749996  0.89949285  0.23943435    -0.23900
C138        C  0.56437657  0.91650105  0.24708661    -0.00900
H139        H  0.57577558  0.88014735  0.20866260     0.12900
H140        H  0.59166934  0.89246954  0.24781299     0.12900
N141        N  0.45424000  0.02098781  0.23660276    -0.03400
C142        C  0.44333480  0.02719210  0.21757049    -0.00800
C143        C  0.42105841  0.03024619  0.22193556    -0.23700
C144        C  0.41808972  0.02734052  0.24430189    -0.23900
C145        C  0.43859605  0.02246853  0.25332362    -0.00900
H146        H  0.40889560  0.03701735  0.21066446     0.12900
H147        H  0.40291232  0.03057754  0.25344566     0.12900
N148        N  0.55275967  0.02097681  0.23400236    -0.03400
C149        C  0.55570954  0.03702655  0.21826975    -0.00800
C150        C  0.57071745  0.05289653  0.22550696    -0.23700
C151        C  0.57736211  0.04692860  0.24622551    -0.23900
C152        C  0.56677047  0.02718071  0.25100378    -0.00900
H153        H  0.57567171  0.06776346  0.21681647     0.12900
H154        H  0.59000889  0.05521438  0.25614900     0.12900
O155        O  0.47692867  0.95024411  0.21608764    -0.72900
O156        O  0.52762056  0.99622309  0.21567028    -0.73900
O157        O  0.52489872  0.94785400  0.21463883    -0.62500
O158        O  0.47965132  0.99794023  0.21723745    -0.70900
O159        O  0.48110213  0.99812992  0.25408758    -0.70400
O160        O  0.52588059  0.94731655  0.25155947    -0.61700
O161        O  0.52921864  0.99520857  0.25255517    -0.74200
O162        O  0.47727483  0.95062179  0.25301005    -0.73000
Cu163      Cu  0.50236809  0.97306633  0.21466939     1.04600
Cu164      Cu  0.50351075  0.97274468  0.25404090     1.04300
C165        C  0.46856914  0.94374706  0.23464051     0.93300
C166        C  0.53615694  0.00326310  0.23404285     0.92500
C167        C  0.53239810  0.93950943  0.23269994     0.84600
C168        C  0.47277594  0.00561403  0.23603597     0.90900
N169        N  0.43777590  0.73290641  0.93614839    -0.03400
C170        C  0.42672277  0.75257131  0.93734769    -0.00800
C171        C  0.40503740  0.74905785  0.94430169    -0.23700
C172        C  0.40177627  0.72678318  0.94530354    -0.23900
C173        C  0.42160134  0.71717177  0.93921851    -0.00900
H174        H  0.39192258  0.76115265  0.94460855     0.12900
H175        H  0.38585796  0.71848643  0.94718258     0.12900
N176        N  0.53749854  0.72220763  0.92821324    -0.03400
C177        C  0.53916013  0.73703277  0.91126734    -0.00800
C178        C  0.55345146  0.72960221  0.89489507    -0.23700
C179        C  0.56109408  0.70965617  0.90178914    -0.23900
C180        C  0.55125197  0.70540702  0.92219463    -0.00900
H181        H  0.55765846  0.73779304  0.87943329     0.12900
H182        H  0.57360695  0.69984204  0.89346675     0.12900
N183        N  0.43550865  0.73152990  0.01871787    -0.03400
C184        C  0.42896513  0.75292165  0.02218838    -0.00800
C185        C  0.40930495  0.75711628  0.01138357    -0.23700
C186        C  0.40210131  0.73741943  0.00277621    -0.23900
C187        C  0.41699861  0.72153275  0.00961606    -0.00900
H188        H  0.39979593  0.77216348  0.01219156     0.12900
H189        H  0.38590931  0.73451392  0.99539976     0.12900
N190        N  0.53246070  0.71730082  0.03175445    -0.03400
C191        C  0.53433122  0.73186187  0.04912592    -0.00800
C192        C  0.54486230  0.72237699  0.06701444    -0.23700
C193        C  0.54973125  0.70128890  0.06077041    -0.23900
C194        C  0.54213568  0.69842992  0.03916970    -0.00900
H195        H  0.54834167  0.72999739  0.08305972     0.12900
H196        H  0.55921326  0.68966368  0.07042038     0.12900
O197        O  0.46875127  0.74558050  0.00270767    -0.72900
O198        O  0.51675007  0.74175512  0.95531944    -0.73900
O199        O  0.46922436  0.74733429  0.95549298    -0.62500
O200        O  0.51568918  0.73934501  0.00408656    -0.70900
O201        O  0.51004228  0.70318710  0.00252114    -0.70400
O202        O  0.46582071  0.71121680  0.95242118    -0.61700
O203        O  0.51326923  0.70534696  0.95438888    -0.74200
O204        O  0.46253249  0.70983022  0.99952884    -0.73000
Cu205      Cu  0.49308430  0.74469151  0.97942283     1.04600
Cu206      Cu  0.48801558  0.70614259  0.97715780     1.04300
C207        C  0.45682406  0.72863323  0.00739656     0.93300
C208        C  0.52224696  0.72309323  0.94694933     0.92500
C209        C  0.45896579  0.73043805  0.94750444     0.84600
C210        C  0.51928287  0.72002103  0.01175291     0.90900
N211        N  0.45111837  0.92544521  0.72598862    -0.03400
C212        C  0.43622947  0.93034431  0.70943796    -0.00800
C213        C  0.41512746  0.93216215  0.71861826    -0.23700
C214        C  0.41641458  0.92671715  0.74058190    -0.23900
C215        C  0.43829477  0.92193262  0.74461547    -0.00900
H216        H  0.39975258  0.93287918  0.70939566     0.12900
H217        H  0.40244192  0.92343769  0.75152950     0.12900
N218        N  0.54738740  0.91101620  0.72965874    -0.03400
C219        C  0.54686255  0.89353846  0.74382334    -0.00800
C220        C  0.55850812  0.87595681  0.73514030    -0.23700
C221        C  0.56638683  0.88238488  0.71488180    -0.23900
C222        C  0.55957125  0.90384728  0.71175953    -0.00900
H223        H  0.56031720  0.85981512  0.74249735     0.12900
H224        H  0.57712326  0.87287104  0.70402451     0.12900
N225        N  0.46025675  0.01520551  0.73282558    -0.03400
C226        C  0.45529150  0.03042209  0.74886994    -0.00800
C227        C  0.44018074  0.04551481  0.74114219    -0.23700
C228        C  0.43535331  0.03961118  0.71972893    -0.23900
C229        C  0.44747665  0.02093837  0.71498187    -0.00900
H230        H  0.43358691  0.05954570  0.75018171     0.12900
H231        H  0.42282467  0.04700945  0.70930274     0.12900
N232        N  0.56010127  0.00838642  0.74373632    -0.03400
C233        C  0.56415092  0.02109820  0.76244476    -0.00800
C234        C  0.58633805  0.02703531  0.76374081    -0.23700
C235        C  0.59646560  0.01855550  0.74537102    -0.23900
C236        C  0.58037580  0.00724838  0.73336491    -0.00900
H237        H  0.59397338  0.03797266  0.77596133     0.12900
H238        H  0.61378431  0.02078123  0.74086551     0.12900
O239        O  0.48286377  0.94434737  0.71120434    -0.72900
O240        O  0.53455467  0.98911728  0.71971073    -0.73900
O241        O  0.53034068  0.94193241  0.71376943    -0.62500
O242        O  0.48597383  0.99150434  0.71525036    -0.70900
O243        O  0.48292431  0.98947575  0.75201338    -0.70400
O244        O  0.52640297  0.93749899  0.75019962    -0.61700
O245        O  0.53070854  0.98541396  0.75624992    -0.74200
O246        O  0.47918818  0.94251606  0.74779472    -0.73000
Cu247      Cu  0.50863639  0.96691830  0.71376036     1.04600
Cu248      Cu  0.50487820  0.96364535  0.75282731     1.04300
C249        C  0.47225493  0.93719075  0.72830055     0.93300
C250        C  0.54086253  0.99409198  0.73965389     0.92500
C251        C  0.53456097  0.93110993  0.73139810     0.84600
C252        C  0.47695313  0.99804627  0.73345837     0.90900
N253        N  0.44584230  0.21641376  0.93866851    -0.03400
C254        C  0.42722227  0.22894082  0.94198729    -0.00800
C255        C  0.40848835  0.21548386  0.94278985    -0.23700
C256        C  0.41507859  0.19453348  0.93794215    -0.23900
C257        C  0.43772997  0.19551175  0.93473687    -0.00900
H258        H  0.39139956  0.22084061  0.94345989     0.12900
H259        H  0.40417381  0.18067231  0.93419737     0.12900
N260        N  0.54557807  0.22446949  0.93402156    -0.03400
C261        C  0.55861590  0.24179562  0.92712846    -0.00800
C262        C  0.56913945  0.23660471  0.90726574    -0.23700
C263        C  0.56289652  0.21558827  0.90169022    -0.23900
C264        C  0.54863973  0.20842114  0.91821285    -0.00900
H265        H  0.58127765  0.24664407  0.89850684     0.12900
H266        H  0.56810194  0.20642772  0.88702895     0.12900
N267        N  0.44519304  0.21884395  0.02846949    -0.03400
C268        C  0.42858572  0.23395341  0.03102224    -0.00800
C269        C  0.41168762  0.22564028  0.04421818    -0.23700
C270        C  0.41750236  0.20483680  0.04991433    -0.23900
C271        C  0.43809374  0.20096755  0.04050493    -0.00900
H272        H  0.39623714  0.23367382  0.04848407     0.12900
H273        H  0.40844878  0.19416109  0.06123278     0.12900
N274        N  0.54578227  0.22484259  0.03288631    -0.03400
C275        C  0.55980232  0.24184194  0.03875942    -0.00800
C276        C  0.57236403  0.23627783  0.05713223    -0.23700
C277        C  0.56648843  0.21531460  0.06273981    -0.23900
C278        C  0.55030600  0.20858067  0.04784371    -0.00900
H279        H  0.58557253  0.24601892  0.06470918     0.12900
H280        H  0.57292414  0.20602542  0.07662873     0.12900
O281        O  0.52066221  0.24187208  0.00770305    -0.72900
O282        O  0.47247094  0.23827042  0.95893062    -0.73900
O283        O  0.47165252  0.23887560  0.00674718    -0.62500
O284        O  0.52103816  0.24172568  0.95963527    -0.70900
O285        O  0.52301699  0.20526393  0.95998101    -0.70400
O286        O  0.47414698  0.20248278  0.00722932    -0.61700
O287        O  0.47545044  0.20198854  0.95957864    -0.74200
O288        O  0.52217090  0.20539913  0.00794769    -0.73000
Cu289      Cu  0.49650313  0.24149504  0.98328750     1.04600
Cu290      Cu  0.49887021  0.20263097  0.98369537     1.04300
C291        C  0.52904756  0.22408302  0.01540117     0.93300
C292        C  0.46576863  0.21917664  0.95225329     0.92500
C293        C  0.46455695  0.22016477  0.01384919     0.84600
C294        C  0.52959066  0.22385256  0.95218446     0.90900
N295        N  0.25080783  0.42005437  0.90280787    -0.03400
C296        C  0.26838244  0.40623915  0.89948509    -0.00800
C297        C  0.26457540  0.39258879  0.88130608    -0.23700
C298        C  0.24408341  0.39757998  0.87325276    -0.23900
C299        C  0.23587938  0.41442454  0.88647318    -0.00900
H300        H  0.27498752  0.37922819  0.87554747     0.12900
H301        H  0.23597944  0.38986519  0.85902868     0.12900
N302        N  0.25856803  0.51438385  0.89700106    -0.03400
C303        C  0.27866073  0.52444917  0.89269196    -0.00800
C304        C  0.28018246  0.53051372  0.87060077    -0.23700
C305        C  0.26049289  0.52511205  0.86093115    -0.23900
C306        C  0.24740128  0.51511980  0.87704747    -0.00900
H307        H  0.29334643  0.54020333  0.86297581     0.12900
H308        H  0.25597405  0.52844208  0.84380413     0.12900
N309        N  0.23847020  0.41797046  0.99076901    -0.03400
C310        C  0.25104602  0.40071140  0.98294278    -0.00800
C311        C  0.23693874  0.38381376  0.97572102    -0.23700
C312        C  0.21593767  0.38898285  0.98253207    -0.23900
C313        C  0.21750585  0.40929350  0.99283971    -0.00900
H314        H  0.24191364  0.36742493  0.97066894     0.12900
H315        H  0.20189476  0.37767783  0.98311105     0.12900
N316        N  0.24178347  0.51989161  0.99724982    -0.03400
C317        C  0.25747504  0.53442801  0.00512701    -0.00800
C318        C  0.24899073  0.54691297  0.02248297    -0.23700
C319        C  0.22752684  0.54023879  0.02549569    -0.23900
C320        C  0.22343415  0.52364544  0.01008173    -0.00900
H321        H  0.25732794  0.56027599  0.03131623     0.12900
H322        H  0.21645083  0.54585665  0.03858222     0.12900
O323        O  0.26299196  0.49529901  0.97495334    -0.72900
O324        O  0.26666934  0.44502742  0.92921695    -0.73900
O325        O  0.27011294  0.49268875  0.92743324    -0.62500
O326        O  0.25988339  0.44767146  0.97645317    -0.70900
O327        O  0.22387640  0.44767172  0.96964943    -0.70400
O328        O  0.23397280  0.49446435  0.92121119    -0.61700
O329        O  0.23058661  0.44718665  0.92267238    -0.74200
O330        O  0.22657451  0.49580204  0.96975541    -0.73000
Cu331      Cu  0.26609536  0.47025385  0.95225271     1.04600
Cu332      Cu  0.22747262  0.47157469  0.94578019     1.04300
C333        C  0.24393234  0.50318012  0.97987719     0.93300
C334        C  0.24927599  0.43801563  0.91890604     0.92500
C335        C  0.25390603  0.50031002  0.91612636     0.84600
C336        C  0.24068843  0.43906734  0.97937557     0.90900
N337        N  0.94480766  0.43873345  0.71400482    -0.03400
C338        C  0.94130070  0.42402790  0.69700848    -0.00800
C339        C  0.92494076  0.40887596  0.70254515    -0.23700
C340        C  0.91803953  0.41409338  0.72360386    -0.23900
C341        C  0.93037632  0.43227249  0.73034704    -0.00900
H342        H  0.91916866  0.39502018  0.69252451     0.12900
H343        H  0.90489397  0.40591930  0.73285993     0.12900
N344        N  0.93757790  0.53086883  0.71563973    -0.03400
C345        C  0.92047936  0.52896862  0.73072622    -0.00800
C346        C  0.90028474  0.53144820  0.72003396    -0.23700
C347        C  0.90473890  0.53656885  0.69836373    -0.23900
C348        C  0.92754094  0.53679981  0.69609569    -0.00900
H349        H  0.88405411  0.53212096  0.72783605     0.12900
H350        H  0.89272276  0.54205728  0.68623574     0.12900
N351        N  0.04500626  0.44693816  0.71422867    -0.03400
C352        C  0.05761281  0.44497254  0.69520819    -0.00800
C353        C  0.07995371  0.44650090  0.70057761    -0.23700
C354        C  0.08136477  0.44739064  0.72330289    -0.23900
C355        C  0.05989058  0.44714372  0.73141824    -0.00900
H356        H  0.09376645  0.44322043  0.68945775     0.12900
H357        H  0.09644620  0.44584228  0.73297524     0.12900
N358        N  0.04055104  0.53732413  0.71725159    -0.03400
C359        C  0.05679578  0.53972813  0.73300225    -0.00800
C360        C  0.07063778  0.55734038  0.72805134    -0.23700
C361        C  0.06309569  0.56610435  0.70862091    -0.23900
C362        C  0.04483065  0.55362305  0.70224862    -0.00900
H363        H  0.08536376  0.56255131  0.73711468     0.12900
H364        H  0.06993619  0.58036119  0.70014722     0.12900
O365        O  0.96782629  0.46436325  0.73342876    -0.72900
O366        O  0.01514532  0.51292024  0.73485815    -0.73900
O367        O  0.96643317  0.51167764  0.73444054    -0.62500
O368        O  0.01614858  0.46582839  0.73351354    -0.70900
O369        O  0.01664399  0.46720313  0.69665572    -0.70400
O370        O  0.96659474  0.51163850  0.69753916    -0.61700
O371        O  0.01470975  0.51441066  0.69792224    -0.74200
O372        O  0.96886173  0.46448070  0.69646561    -0.73000
Cu373      Cu  0.99134979  0.48872800  0.73533532     1.04600
Cu374      Cu  0.99168645  0.48949609  0.69591797     1.04300
C375        C  0.96098962  0.45663690  0.71467770     0.93300
C376        C  0.02271234  0.52103227  0.71664945     0.92500
C377        C  0.95798453  0.51812181  0.71601323     0.84600
C378        C  0.02477062  0.45987401  0.71484163     0.90900
N379        N  0.74503118  0.43399960  0.92298092    -0.03400
C380        C  0.76105688  0.42800668  0.90778364    -0.00800
C381        C  0.75515838  0.40841829  0.89723546    -0.23700
C382        C  0.73485200  0.40235597  0.90512741    -0.23900
C383        C  0.72887950  0.41799645  0.92078036    -0.00900
H384        H  0.76414634  0.40018831  0.88393721     0.12900
H385        H  0.72563347  0.38755682  0.90055889     0.12900
N386        N  0.74827532  0.53281357  0.92873896    -0.03400
C387        C  0.76614050  0.53884472  0.91593046    -0.00800
C388        C  0.76106183  0.55661722  0.90268292    -0.23700
C389        C  0.73952147  0.56170286  0.90690389    -0.23900
C390        C  0.73199688  0.54741148  0.92319677    -0.00900
H391        H  0.77160301  0.56416082  0.89014006     0.12900
H392        H  0.73065137  0.57552923  0.90001820     0.12900
N393        N  0.74646647  0.43490821  0.02424410    -0.03400
C394        C  0.76155856  0.43677921  0.04133932    -0.00800
C395        C  0.75078586  0.43475780  0.06166803    -0.23700
C396        C  0.72909219  0.42966321  0.05729688    -0.23900
C397        C  0.72695252  0.42892616  0.03440420    -0.00900
H398        H  0.75855489  0.43407268  0.07793681     0.12900
H399        H  0.71700680  0.42397026  0.06943091     0.12900
N400        N  0.74675874  0.52492765  0.02725316    -0.03400
C401        C  0.76351714  0.52873357  0.04224663    -0.00800
C402        C  0.75691079  0.54349377  0.05856588    -0.23700
C403        C  0.73546693  0.54886565  0.05401904    -0.23900
C404        C  0.72947224  0.53744420  0.03489722    -0.00900
H405        H  0.76639800  0.54884627  0.07300631     0.12900
H406        H  0.72545955  0.56059996  0.06320536     0.12900
O407        O  0.72835878  0.45642932  0.99684581    -0.72900
O408        O  0.72866104  0.50683661  0.95138118    -0.73900
O409        O  0.72767562  0.45867087  0.94839677    -0.62500
O410        O  0.72845477  0.50365078  0.99937921    -0.70900
O411        O  0.76524233  0.50299892  0.99991183    -0.70400
O412        O  0.76442375  0.45865638  0.94755118    -0.61700
O413        O  0.76542586  0.50619260  0.95152081    -0.74200
O414        O  0.76509761  0.45587338  0.99631714    -0.73000
Cu415      Cu  0.72704795  0.48134895  0.97386761     1.04600
Cu416      Cu  0.76628797  0.48090911  0.97368782     1.04300
C417        C  0.74670278  0.44900478  0.00461412     0.93300
C418        C  0.74734347  0.51466600  0.94451791     0.92500
C419        C  0.74578532  0.45137896  0.93996372     0.84600
C420        C  0.74685782  0.51004585  0.00807793     0.90900
N421        N  0.95995411  0.42298049  0.21404426    -0.03400
C422        C  0.95329167  0.41001003  0.23150460    -0.00800
C423        C  0.93585838  0.39635268  0.22514330    -0.23700
C424        C  0.93205477  0.40004681  0.20312517    -0.23900
C425        C  0.94669476  0.41644748  0.19650875    -0.00900
H426        H  0.92794163  0.38366792  0.23511415     0.12900
H427        H  0.91901560  0.39245042  0.19316427     0.12900
N428        N  0.96111895  0.51986920  0.21420269    -0.03400
C429        C  0.94493032  0.52387327  0.19861107    -0.00800
C430        C  0.93160190  0.54113917  0.20534645    -0.23700
C431        C  0.93835583  0.54732732  0.22593919    -0.23900
C432        C  0.95669522  0.53481919  0.23098608    -0.00900
H433        H  0.91714745  0.54736762  0.19678382     0.12900
H434        H  0.93167301  0.56088007  0.23566265     0.12900
N435        N  0.05692594  0.42149872  0.21667267    -0.03400
C436        C  0.06391905  0.41021665  0.23512252    -0.00800
C437        C  0.08320022  0.39886840  0.23036495    -0.23700
C438        C  0.08769333  0.40188350  0.20835527    -0.23900
C439        C  0.07158765  0.41570337  0.20023920    -0.00900
H440        H  0.09173466  0.38757574  0.24124758     0.12900
H441        H  0.10169553  0.39522511  0.19923543     0.12900
N442        N  0.06021384  0.51890257  0.21280553    -0.03400
C443        C  0.07392816  0.52463637  0.19529430    -0.00800
C444        C  0.08559207  0.54384016  0.20014394    -0.23700
C445        C  0.08045452  0.54960965  0.22142300    -0.23900
C446        C  0.06485036  0.53452543  0.22890075    -0.00900
H447        H  0.09800298  0.55183521  0.18977113     0.12900
H448        H  0.08656009  0.56410205  0.23026664     0.12900
O449        O  0.03479640  0.49512789  0.23209533    -0.72900
O450        O  0.98471418  0.44796366  0.23268953    -0.73900
O451        O  0.03248000  0.44700761  0.23381828    -0.62500
O452        O  0.98646762  0.49610137  0.23229957    -0.70900
O453        O  0.98569409  0.49482790  0.19543466    -0.70400
O454        O  0.03330080  0.44597887  0.19688845    -0.61700
O455        O  0.98522773  0.44709833  0.19574175    -0.74200
O456        O  0.03480210  0.49390805  0.19517880    -0.73000
Cu457      Cu  0.00960688  0.47162710  0.23395171     1.04600
Cu458      Cu  0.00979820  0.47047587  0.19455395     1.04300
C459        C  0.04278796  0.50187921  0.21339489     0.93300
C460        C  0.97727761  0.43996465  0.21418306     0.92500
C461        C  0.04009551  0.43860520  0.21572591     0.84600
C462        C  0.97839990  0.50301294  0.21389662     0.90900
N463        N  0.95098380  0.22922397  0.42840954    -0.03400
C464        C  0.93449579  0.21351635  0.42690763    -0.00800
C465        C  0.91706341  0.22080196  0.41406612    -0.23700
C466        C  0.92239262  0.24150031  0.40743024    -0.23900
C467        C  0.94352265  0.24613683  0.41531912    -0.00900
H468        H  0.90167315  0.21204906  0.41047419     0.12900
H469        H  0.91283203  0.25131729  0.39594906     0.12900
N470        N  0.95106741  0.23501118  0.52424901    -0.03400
C471        C  0.93572571  0.21971030  0.53170133    -0.00800
C472        C  0.92274544  0.22885131  0.54845450    -0.23700
C473        C  0.92882091  0.25029101  0.55063871    -0.23900
C474        C  0.94650007  0.25374016  0.53635167    -0.00900
H475        H  0.90917404  0.22092229  0.55732595     0.12900
H476        H  0.92251953  0.26170541  0.56308187     0.12900
N477        N  0.04943694  0.22401478  0.42693892    -0.03400
C478        C  0.05245502  0.23814135  0.40945006    -0.00800
C479        C  0.06429753  0.22825096  0.39245434    -0.23700
C480        C  0.06916040  0.20756611  0.39935525    -0.23900
C481        C  0.06092249  0.20546094  0.42082159    -0.00900
H482        H  0.06873474  0.23539781  0.37652391     0.12900
H483        H  0.08000363  0.19617628  0.39070187     0.12900
N484        N  0.04903718  0.22994416  0.52620370    -0.03400
C485        C  0.05698746  0.24747061  0.53852463    -0.00800
C486        C  0.07373230  0.24093087  0.55265767    -0.23700
C487        C  0.07616168  0.21886374  0.54962866    -0.23900
C488        C  0.06115287  0.21237237  0.53339416    -0.00900
H489        H  0.08234646  0.25104410  0.56494144     0.12900
H490        H  0.08851318  0.20869986  0.55755500     0.12900
O491        O  0.02657347  0.24516656  0.45140327    -0.72900
O492        O  0.97775058  0.25016536  0.49914986    -0.73900
O493        O  0.02576275  0.24803040  0.50009723    -0.62500
O494        O  0.97838857  0.24770203  0.45062861    -0.70900
O495        O  0.97616610  0.21132668  0.45271107    -0.70400
O496        O  0.02321809  0.21164965  0.50213943    -0.61700
O497        O  0.97484836  0.21384431  0.50062444    -0.74200
O498        O  0.02462304  0.20878526  0.45384368    -0.73000
Cu499      Cu  0.00223865  0.24899615  0.47525798     1.04600
Cu500      Cu  0.99969903  0.21018353  0.47737283     1.04300
C501        C  0.03324899  0.22609476  0.44499710     0.93300
C502        C  0.96845611  0.23285645  0.50734038     0.92500
C503        C  0.03193088  0.22990538  0.50895908     0.84600
C504        C  0.96948612  0.22942388  0.44415415     0.90900
O505        O  0.02826892  0.33997820  0.30541680    -0.72900
O506        O  0.97968080  0.30994117  0.33876040    -0.73900
O507        O  0.98308713  0.34230610  0.30402623    -0.62500
O508        O  0.02472348  0.30719031  0.34024257    -0.70900
O509        O  0.02631706  0.33348438  0.36619493    -0.70400
O510        O  0.98379620  0.36984368  0.32850220    -0.61700
O511        O  0.98080891  0.33570911  0.36503085    -0.74200
O512        O  0.02898815  0.36761015  0.32972926    -0.73000
Cu513      Cu  0.00394137  0.32410943  0.32138659     1.04600
Cu514      Cu  0.00501580  0.35265257  0.34836640     1.04300
C515        C  0.03368628  0.35987654  0.31034714     0.93300
C516        C  0.97478422  0.31637652  0.35850096     0.92500
C517        C  0.97939331  0.36249069  0.30885033     0.84600
C518        C  0.02957077  0.31345310  0.36004487     0.90900
O519        O  0.86825271  0.13897590  0.45706105    -0.72900
O520        O  0.83936504  0.10442882  0.50510259    -0.73900
O521        O  0.86894386  0.14185808  0.50241891    -0.62500
O522        O  0.83851342  0.10164738  0.45983237    -0.70900
O523        O  0.86659585  0.07827327  0.46113236    -0.70400
O524        O  0.89860536  0.12080844  0.50412722    -0.61700
O525        O  0.86800126  0.08191778  0.50681203    -0.74200
O526        O  0.89802141  0.11797819  0.45823652    -0.73000
Cu527      Cu  0.85297551  0.12236272  0.48102796     1.04600
Cu528      Cu  0.88393356  0.09886899  0.48245164     1.04300
C529        C  0.88886474  0.13627912  0.45319636     0.93300
C530        C  0.84783569  0.08646638  0.51178543     0.92500
C531        C  0.88907522  0.13920236  0.50831143     0.84600
C532        C  0.84611839  0.08228923  0.45691801     0.90900
O533        O  0.13215227  0.14678491  0.51265451    -0.72900
O534        O  0.17391257  0.12092183  0.46901164    -0.73900
O535        O  0.13610128  0.14891851  0.46746336    -0.62500
O536        O  0.16976746  0.11853094  0.51411758    -0.70900
O537        O  0.14785503  0.08914578  0.51229186    -0.70400
O538        O  0.11406309  0.11989056  0.46238932    -0.61700
O539        O  0.15403525  0.09001421  0.46679775    -0.74200
O540        O  0.10829585  0.11895277  0.50800520    -0.73000
Cu541      Cu  0.15356884  0.13457009  0.49092357     1.04600
Cu542      Cu  0.13016072  0.10332143  0.48720790     1.04300
C543        C  0.11248653  0.13888369  0.51410754     0.93300
C544        C  0.17256292  0.10039094  0.46430493     0.92500
C545        C  0.11838511  0.14042322  0.45930529     0.84600
C546        C  0.16597079  0.09843684  0.51889569     0.90900
O547        O  0.84239644  0.43858965  0.09078449    -0.72900
O548        O  0.87164146  0.48040735  0.13350220    -0.73900
O549        O  0.83666677  0.48230254  0.10079353    -0.62500
O550        O  0.87710543  0.43668705  0.12423935    -0.70900
O551        O  0.90361514  0.44671392  0.10053572    -0.70400
O552        O  0.86038890  0.49100684  0.07389339    -0.61700
O553        O  0.89609671  0.49076369  0.10799427    -0.74200
O554        O  0.86741688  0.44700350  0.06491810    -0.73000
Cu555      Cu  0.85622153  0.45917553  0.11305205     1.04600
Cu556      Cu  0.88282764  0.46904906  0.08579829     1.04300
C557        C  0.84859512  0.43850853  0.07037244     0.93300
C558        C  0.88956290  0.49062362  0.12833913     0.92500
C559        C  0.84088008  0.49208111  0.08245068     0.84600
C560        C  0.89765489  0.43772901  0.11897821     0.90900
O561        O  0.16599505  0.47825890  0.08236295    -0.72900
O562        O  0.13260558  0.43538685  0.11939445    -0.73900
O563        O  0.16202966  0.43324657  0.08117012    -0.62500
O564        O  0.13645969  0.48041778  0.12033175    -0.70900
O565        O  0.10729562  0.48354876  0.09829448    -0.70400
O566        O  0.13318543  0.43548666  0.05857706    -0.61700
O567        O  0.10263376  0.43848896  0.09817958    -0.74200
O568        O  0.13780591  0.48062528  0.05882383    -0.73000
Cu569      Cu  0.15011601  0.45671802  0.10148325     1.04600
Cu570      Cu  0.11916439  0.45957802  0.07760146     1.04300
C571        C  0.15839505  0.48380044  0.06341318     0.93300
C572        C  0.11166323  0.43314464  0.11667427     0.92500
C573        C  0.15301345  0.42896358  0.06230030     0.84600
C574        C  0.11690174  0.48774893  0.11693280     0.90900
O575        O  0.60514739  0.33316295  0.00497139    -0.72900
O576        O  0.63770590  0.37255464  0.96038155    -0.73900
O577        O  0.60446883  0.33500215  0.95937154    -0.62500
O578        O  0.63803299  0.37082258  0.00610971    -0.70900
O579        O  0.66505110  0.34644128  0.00463556    -0.70400
O580        O  0.63236566  0.31151898  0.95815189    -0.61700
O581        O  0.66453914  0.34778547  0.95914578    -0.74200
O582        O  0.63345283  0.31030277  0.00363431    -0.73000
Cu583      Cu  0.62032351  0.35378373  0.98275605     1.04600
Cu584      Cu  0.64966873  0.32833183  0.98132019     1.04300
C585        C  0.61329340  0.31407679  0.00873835     0.93300
C586        C  0.65760887  0.36718528  0.95511604     0.92500
C587        C  0.61209356  0.31605387  0.95392458     0.84600
C588        C  0.65804719  0.36544353  0.01056437     0.90900
O589        O  0.86052935  0.47186152  0.79942290    -0.72900
O590        O  0.83388348  0.51538463  0.84087694    -0.73900
O591        O  0.86853199  0.51585429  0.80762757    -0.62500
O592        O  0.82630671  0.47131060  0.83352194    -0.70900
O593        O  0.85144945  0.46175247  0.85839782    -0.70400
O594        O  0.89325295  0.50849183  0.83385604    -0.61700
O595        O  0.85652750  0.50573606  0.86806405    -0.74200
O596        O  0.88689684  0.46449074  0.82391626    -0.73000
Cu597      Cu  0.84657579  0.49385659  0.81957801     1.04600
Cu598      Cu  0.87300096  0.48486705  0.84700583     1.04300
C599        C  0.87949291  0.46388016  0.80386576     0.93300
C600        C  0.83823634  0.51426541  0.86160731     0.92500
C601        C  0.88832208  0.51742058  0.81524566     0.84600
C602        C  0.83134401  0.46125207  0.85145266     0.90900
O603        O  0.03269152  0.38569712  0.60511388    -0.72900
O604        O  0.98664449  0.34588982  0.57462373    -0.73900
O605        O  0.98675357  0.38448043  0.60542944    -0.62500
O606        O  0.03242261  0.34653807  0.57365371    -0.70900
O607        O  0.03367004  0.32534291  0.60360892    -0.70400
O608        O  0.98786052  0.36110098  0.63378484    -0.61700
O609        O  0.98838941  0.32408500  0.60390405    -0.74200
O610        O  0.03292273  0.36258955  0.63356188    -0.73000
Cu611      Cu  0.00969068  0.36656862  0.58860271     1.04600
Cu612      Cu  0.01075135  0.34265112  0.61954323     1.04300
C613        C  0.03812102  0.38124696  0.62528347     0.93300
C614        C  0.98221157  0.32737322  0.58390720     0.92500
C615        C  0.98193635  0.37945047  0.62558035     0.84600
C616        C  0.03741268  0.32823130  0.58285282     0.90900
O617        O  0.12395418  0.48304528  0.79046304    -0.72900
O618        O  0.15234989  0.43674316  0.82686679    -0.73900
O619        O  0.11289051  0.44016481  0.80017045    -0.62500
O620        O  0.16341825  0.47966144  0.81792178    -0.70900
O621        O  0.14492864  0.49229692  0.84711829    -0.70400
O622        O  0.09393355  0.45093583  0.83005167    -0.61700
O623        O  0.13612489  0.44903596  0.85770809    -0.74200
O624        O  0.10412267  0.49416531  0.81946120    -0.73000
Cu625      Cu  0.13868731  0.45954565  0.80799146     1.04600
Cu626      Cu  0.11897942  0.47189829  0.83970766     1.04300
C627        C  0.10796929  0.49437444  0.79841352     0.93300
C628        C  0.15181385  0.43833592  0.84811341     0.92500
C629        C  0.09455531  0.44148556  0.81083250     0.84600
C630        C  0.16319167  0.49051582  0.83628104     0.90900
O631        O  0.34973012  0.35896819  0.99606959    -0.72900
O632        O  0.39031446  0.32997747  0.95086715    -0.73900
O633        O  0.35353894  0.36320718  0.95056774    -0.62500
O634        O  0.38556890  0.32514720  0.99611769    -0.70900
O635        O  0.35889240  0.30001606  0.99204280    -0.70400
O636        O  0.33018018  0.33532009  0.94466936    -0.61700
O637        O  0.36562415  0.30291034  0.94667240    -0.74200
O638        O  0.32408004  0.33305723  0.99008697    -0.73000
Cu639      Cu  0.37067879  0.34529856  0.97360693     1.04600
Cu640      Cu  0.34393259  0.31699916  0.96822393     1.04300
C641        C  0.32955118  0.35219436  0.99754685     0.93300
C642        C  0.38543484  0.31044672  0.94412774     0.92500
C643        C  0.33512684  0.35570989  0.94262342     0.84600
C644        C  0.37838125  0.30531757  0.99861230     0.90900
O645        O  0.52062630  0.13285026  0.85610561    -0.72900
O646        O  0.47604032  0.09838847  0.82172429    -0.73900
O647        O  0.47540181  0.13291531  0.85520782    -0.62500
O648        O  0.52131252  0.09800763  0.82249658    -0.70900
O649        O  0.52145428  0.07308197  0.84919031    -0.70400
O650        O  0.47296960  0.10743609  0.88135477    -0.61700
O651        O  0.47619894  0.07163986  0.84679881    -0.74200
O652        O  0.51860975  0.10919879  0.88414600    -0.73000
Cu653      Cu  0.49839173  0.11628434  0.83812050     1.04600
Cu654      Cu  0.49729773  0.08941329  0.86641778     1.04300
C655        C  0.52373016  0.12832124  0.87662020     0.93300
C656        C  0.47244267  0.07830043  0.82695630     0.92500
C657        C  0.46843853  0.12682122  0.87434845     0.84600
C658        C  0.52652875  0.07878252  0.82923470     0.90900
O659        O  0.52153122  0.10429132  0.14940624    -0.72900
O660        O  0.47616367  0.13829783  0.11724688    -0.73900
O661        O  0.47613664  0.10454326  0.15093913    -0.62500
O662        O  0.52126672  0.13786256  0.11583906    -0.70900
O663        O  0.51983865  0.11305242  0.08844880    -0.70400
O664        O  0.47479189  0.07812196  0.12530927    -0.61700
O665        O  0.47418413  0.11333725  0.09028169    -0.74200
O666        O  0.52046563  0.07768706  0.12378856    -0.73000
Cu667      Cu  0.49884407  0.12195745  0.13410385     1.04600
Cu668      Cu  0.49733492  0.09454819  0.10594159     1.04300
C669        C  0.52568386  0.08451308  0.14343085     0.93300
C670        C  0.47000975  0.13279865  0.09764365     0.92500
C671        C  0.47026020  0.08502472  0.14506485     0.84600
C672        C  0.52486869  0.13248815  0.09551642     0.90900
O673        O  0.34019071  0.93470787  0.61136431    -0.72900
O674        O  0.37522645  0.97249252  0.65234448    -0.73900
O675        O  0.33863189  0.97863497  0.62306557    -0.62500
O676        O  0.37769209  0.92879572  0.64019895    -0.70900
O677        O  0.39995371  0.93689822  0.61177436    -0.70400
O678        O  0.36201860  0.98928267  0.59669728    -0.61700
O679        O  0.39974219  0.98060981  0.62615605    -0.74200
O680        O  0.36003075  0.94611494  0.58237734    -0.73000
Cu681      Cu  0.35727204  0.95330364  0.63252850     1.04600
Cu682      Cu  0.38140033  0.96330518  0.60314683     1.04300
C683        C  0.34184462  0.93826148  0.59049163     0.93300
C684        C  0.39375403  0.98106257  0.64672607     0.92500
C685        C  0.34315451  0.99087299  0.60637281     0.84600
C686        C  0.39641849  0.92703760  0.63032405     0.90900
O687        O  0.44477490  0.81152431  0.85201611    -0.72900
O688        O  0.49259366  0.83258365  0.81112311    -0.73900
O689        O  0.48878408  0.80143678  0.84739609    -0.62500
O690        O  0.44854188  0.84275785  0.81541283    -0.70900
O691        O  0.45796230  0.86980511  0.83859060    -0.70400
O692        O  0.49789346  0.82764181  0.87183799    -0.61700
O693        O  0.50198398  0.85923751  0.83486780    -0.74200
O694        O  0.45355271  0.83807000  0.87619449    -0.73000
Cu695      Cu  0.46835408  0.82124822  0.83074740     1.04600
Cu696      Cu  0.47807769  0.84963499  0.85627369     1.04300
C697        C  0.44361167  0.81979852  0.87164010     0.93300
C698        C  0.50293372  0.85061202  0.81534665     0.92500
C699        C  0.49791056  0.80733409  0.86575709     0.84600
C700        C  0.44923732  0.86337872  0.82012600     0.90900
O701        O  0.32540680  0.61107090  0.97805699    -0.72900
O702        O  0.36683972  0.64181271  0.93622381    -0.73900
O703        O  0.33261575  0.60794638  0.93326830    -0.62500
O704        O  0.35912525  0.64495553  0.98205848    -0.70900
O705        O  0.38475001  0.61986315  0.98831527    -0.70400
O706        O  0.35779494  0.58221092  0.93833792    -0.61700
O707        O  0.39259348  0.61672893  0.94231945    -0.74200
O708        O  0.34990134  0.58471834  0.98337770    -0.73000
Cu709      Cu  0.34532355  0.62731803  0.95721213     1.04600
Cu710      Cu  0.37227158  0.60003728  0.96333121     1.04300
C711        C  0.32983298  0.59152063  0.98420135     0.93300
C712        C  0.38684599  0.63521208  0.93409943     0.92500
C713        C  0.33925808  0.58827101  0.92997095     0.84600
C714        C  0.37677461  0.63906589  0.99212289     0.90900
O715        O  0.46116497  0.83649763  0.15123616    -0.72900
O716        O  0.50371945  0.80161642  0.11480704    -0.73900
O717        O  0.50625309  0.83374183  0.15106671    -0.62500
O718        O  0.45837687  0.80402447  0.11467394    -0.70900
O719        O  0.46010945  0.83138655  0.09054740    -0.70400
O720        O  0.50899653  0.86083259  0.12670679    -0.61700
O721        O  0.50578594  0.82809189  0.08944760    -0.74200
O722        O  0.46357647  0.86404056  0.12738686    -0.73000
Cu723      Cu  0.48231086  0.81811085  0.13370162     1.04600
Cu724      Cu  0.48468695  0.84702315  0.10763415     1.04300
C725        C  0.45821682  0.85679125  0.14669665     0.93300
C726        C  0.50909853  0.80814694  0.09529941     0.92500
C727        C  0.51297943  0.85315319  0.14613704     0.84600
C728        C  0.45352089  0.81185693  0.09557883     0.90900
O729        O  0.36794554  0.96915845  0.38454764    -0.72900
O730        O  0.41620170  0.00906723  0.35903030    -0.73900
O731        O  0.37958964  0.01169118  0.39464772    -0.62500
O732        O  0.40264674  0.96664445  0.34909988    -0.70900
O733        O  0.37718626  0.97838703  0.32548047    -0.70400
O734        O  0.35913382  0.02539522  0.36773368    -0.61700
O735        O  0.39237058  0.02033622  0.33347140    -0.74200
O736        O  0.34434202  0.98304970  0.36027114    -0.73000
Cu737      Cu  0.39260701  0.98878183  0.37279123     1.04600
Cu738      Cu  0.36758976  0.00218432  0.34603364     1.04300
C739        C  0.34798054  0.97196053  0.37794721     0.93300
C740        C  0.41232734  0.01848593  0.34037287     0.92500
C741        C  0.36274175  0.02296504  0.38846597     0.84600
C742        C  0.39445317  0.96703013  0.32935841     0.90900
O743        O  0.17148613  0.85189534  0.49216371    -0.72900
O744        O  0.14248518  0.81983987  0.44182333    -0.73900
O745        O  0.17291035  0.85715820  0.44720172    -0.62500
O746        O  0.14134472  0.81466955  0.48704285    -0.70900
O747        O  0.11223841  0.83648698  0.48902771    -0.70400
O748        O  0.14507200  0.88067268  0.44974752    -0.61700
O749        O  0.11329658  0.84180085  0.44372847    -0.74200
O750        O  0.14322860  0.87471490  0.49482055    -0.73000
Cu751      Cu  0.15788946  0.83521808  0.46691210     1.04600
Cu752      Cu  0.12738939  0.85925428  0.46928504     1.04300
C753        C  0.16336977  0.86989783  0.49945454     0.93300
C754        C  0.12201670  0.82347435  0.43776804     0.92500
C755        C  0.16559243  0.87679379  0.44558178     0.84600
C756        C  0.12101993  0.81766670  0.49241666     0.90900
O757        O  0.99639504  0.60950825  0.29557697    -0.72900
O758        O  0.04147999  0.63981008  0.33301874    -0.73900
O759        O  0.04109599  0.60569898  0.29922282    -0.62500
O760        O  0.99648080  0.64359532  0.32926931    -0.70900
O761        O  0.99175899  0.61936637  0.35624921    -0.70400
O762        O  0.03594989  0.57942537  0.32430231    -0.61700
O763        O  0.03699834  0.61527958  0.35998033    -0.74200
O764        O  0.99074242  0.58397838  0.32110939    -0.73000
Cu765      Cu  0.01904879  0.62538271  0.31356399     1.04600
Cu766      Cu  0.01378083  0.59854250  0.34143563     1.04300
C767        C  0.98844088  0.59076122  0.30103733     0.93300
C768        C  0.04372259  0.63429139  0.35338799     0.92500
C769        C  0.04244342  0.58549551  0.30486856     0.84600
C770        C  0.98892974  0.63880077  0.34860074     0.90900
O771        O  0.84241324  0.83597681  0.47154166    -0.72900
O772        O  0.88763751  0.81275846  0.51380933    -0.73900
O773        O  0.85086589  0.84271639  0.51577038    -0.62500
O774        O  0.87959175  0.80549999  0.46894621    -0.70900
O775        O  0.90294909  0.83263598  0.46061583    -0.70400
O776        O  0.87210553  0.87129085  0.50684786    -0.61700
O777        O  0.91024812  0.84074643  0.50566521    -0.74200
O778        O  0.86485957  0.86369086  0.46217678    -0.73000
Cu779      Cu  0.86446906  0.82335035  0.49275669     1.04600
Cu780      Cu  0.88841289  0.85306138  0.48353650     1.04300
C781        C  0.84546056  0.85482167  0.46253094     0.93300
C782        C  0.90684384  0.82188020  0.51458595     0.92500
C783        C  0.85490349  0.86344139  0.51672041     0.84600
C784        C  0.89703782  0.81231946  0.45877275     0.90900
O785        O  0.64752889  0.98877643  0.37897678    -0.72900
O786        O  0.60901078  0.94571632  0.34284957    -0.73900
O787        O  0.64373532  0.94374341  0.37904372    -0.62500
O788        O  0.61249837  0.99073131  0.34326454    -0.70900
O789        O  0.63876595  0.98791990  0.31761747    -0.70400
O790        O  0.67017551  0.94263209  0.35326271    -0.61700
O791        O  0.63651693  0.94313493  0.31833268    -0.74200
O792        O  0.67256470  0.98745558  0.35204215    -0.73000
Cu793      Cu  0.62721929  0.96728519  0.36200641     1.04600
Cu794      Cu  0.65527285  0.96521241  0.33456311     1.04300
C795        C  0.66741443  0.99250128  0.37205671     0.93300
C796        C  0.61604396  0.94030521  0.32335461     0.92500
C797        C  0.66342162  0.93841087  0.37303421     0.84600
C798        C  0.61932797  0.99417337  0.32333574     0.90900
O799        O  0.00099719  0.61857658  0.63249590    -0.72900
O800        O  0.95708237  0.64785515  0.59359109    -0.73900
O801        O  0.95571310  0.61565399  0.62945582    -0.62500
O802        O  0.00210153  0.65025086  0.59688236    -0.70900
O803        O  0.00583004  0.62320442  0.57202612    -0.70400
O804        O  0.95841049  0.58829216  0.60489086    -0.61700
O805        O  0.96025810  0.62143442  0.56815992    -0.74200
O806        O  0.00389130  0.59068133  0.60861817    -0.73000
Cu807      Cu  0.97879237  0.63389237  0.61386187     1.04600
Cu808      Cu  0.98211739  0.60490670  0.58750406     1.04300
C809        C  0.00771080  0.59914803  0.62789817     0.93300
C810        C  0.95425395  0.64099233  0.57360835     0.92500
C811        C  0.95212608  0.59548648  0.62401870     0.84600
C812        C  0.00972975  0.64310136  0.57830298     0.90900
O813        O  0.68055060  0.97777206  0.62318911    -0.72900
O814        O  0.63915857  0.93247773  0.64619448    -0.73900
O815        O  0.67138837  0.93493068  0.61103832    -0.62500
O816        O  0.64754287  0.97536283  0.65813953    -0.70900
O817        O  0.62238518  0.98789205  0.63466645    -0.70400
O818        O  0.64476811  0.94483224  0.58772966    -0.61700
O819        O  0.61168861  0.94485513  0.62559558    -0.74200
O820        O  0.65613760  0.98801833  0.59773101    -0.73000
Cu821      Cu  0.66043787  0.95484344  0.63530127     1.04600
Cu822      Cu  0.63278404  0.96683240  0.61048573     1.04300
C823        C  0.67617016  0.98755956  0.60498763     0.93300
C824        C  0.61843446  0.93411061  0.64262211     0.92500
C825        C  0.66309385  0.93496966  0.59142997     0.84600
C826        C  0.62957327  0.98587613  0.65463387     0.90900
O827        O  0.60208048  0.61976803  0.96049120    -0.72900
O828        O  0.63389309  0.57878172  0.00340068    -0.73900
O829        O  0.59611047  0.61136843  0.00505597    -0.62500
O830        O  0.63892030  0.58750509  0.95858916    -0.70900
O831        O  0.66226440  0.61452784  0.96743960    -0.70400
O832        O  0.62093044  0.63743625  0.01345168    -0.61700
O833        O  0.65681211  0.60650972  0.01179782    -0.74200
O834        O  0.62648953  0.64588140  0.96914884    -0.73000
Cu835      Cu  0.61682516  0.59830909  0.98169111     1.04600
Cu836      Cu  0.64230450  0.62684753  0.99074528     1.04300
C837        C  0.60826873  0.64007897  0.95991083     0.93300
C838        C  0.65228781  0.58589623  0.01171320     0.92500
C839        C  0.60091522  0.63024470  0.01364474     0.84600
C840        C  0.65839009  0.59619217  0.95755688     0.90900
C841        C  0.04605313  0.26857893  0.54375911    -0.06100
C842        C  0.05640788  0.28827717  0.53653399    -0.17200
C843        C  0.05469040  0.30812226  0.54893908     0.11100
C844        C  0.04254550  0.30827958  0.56916053    -0.06000
C845        C  0.03193991  0.28862551  0.57586359    -0.17200
C846        C  0.03311962  0.26921367  0.56335927     0.11200
S847        S  0.07024508  0.33181927  0.53945620    -0.32200
S848        S  0.02092115  0.24462993  0.57528521    -0.32200
H849        H  0.01522951  0.23500622  0.55461745     0.29200
H850        H  0.07436146  0.34061373  0.56088009     0.29200
H851        H  0.06752235  0.28772179  0.52228101     0.19800
H852        H  0.02258319  0.28824298  0.59127562     0.19800
C853        C  0.06513614  0.19112579  0.52196569    -0.06100
C854        C  0.06208027  0.17171283  0.53460313    -0.17200
C855        C  0.07666361  0.15370359  0.53246421     0.11100
C856        C  0.09447446  0.15514059  0.51717017    -0.06000
C857        C  0.09598844  0.17368310  0.50328496    -0.17200
C858        C  0.08148010  0.19127154  0.50519344     0.11200
S859        S  0.07322097  0.13097115  0.55142155    -0.32200
S860        S  0.08810991  0.21573614  0.48957799    -0.32200
H861        H  0.06610797  0.21880688  0.48265802     0.29200
H862        H  0.09547540  0.12417363  0.55121362     0.29200
H863        H  0.05006743  0.17170307  0.54811628     0.19800
H864        H  0.10956043  0.17517707  0.49150701     0.19800
C865        C  0.04185776  0.25954154  0.40505364    -0.06100
C866        C  0.05508163  0.27883817  0.40679083    -0.17200
C867        C  0.05165708  0.29705001  0.39269580     0.11100
C868        C  0.03463098  0.29595224  0.37652014    -0.06000
C869        C  0.02061981  0.27719344  0.37601095    -0.17200
C870        C  0.02397665  0.25924077  0.39007551     0.11200
S871        S  0.07094120  0.31993082  0.39451307    -0.32200
S872        S  0.00755568  0.23438310  0.38649513    -0.32200
H873        H  0.00208195  0.23840223  0.36408216     0.29200
H874        H  0.07010742  0.32548926  0.37178693     0.29200
H875        H  0.06956628  0.27882150  0.41752546     0.19800
H876        H  0.00731627  0.27621652  0.36391374     0.19800
C877        C  0.10231012  0.15595650  0.44879117    -0.06100
C878        C  0.11050729  0.17717988  0.44381381    -0.17200
C879        C  0.09651036  0.19442995  0.43824753     0.11100
C880        C  0.07339483  0.19061082  0.43573996    -0.06000
C881        C  0.06490821  0.16945332  0.44037351    -0.17200
C882        C  0.07891620  0.15238506  0.44761193     0.11200
S883        S  0.10955902  0.22092892  0.43318047    -0.32200
S884        S  0.06579458  0.12677480  0.45536812    -0.32200
H885        H  0.07470929  0.12733857  0.47706033     0.29200
H886        H  0.09116727  0.23348550  0.43986747     0.29200
H887        H  0.12815275  0.18077728  0.44497446     0.19800
H888        H  0.04736738  0.16605884  0.43784856     0.19800
C889        C  0.96195815  0.27184211  0.54254698    -0.06100
C890        C  0.97174077  0.26880248  0.56344715    -0.17200
C891        C  0.97504518  0.28636727  0.57822288     0.11100
C892        C  0.97290002  0.30841427  0.57068882    -0.06000
C893        C  0.96520562  0.31163155  0.54874091    -0.17200
C894        C  0.95867029  0.29364928  0.53509843     0.11200
S895        S  0.97934862  0.27877815  0.60697536    -0.32200
S896        S  0.94483940  0.29961436  0.50917642    -0.32200
H897        H  0.94432057  0.27798764  0.50060545     0.29200
H898        H  0.96286921  0.29308990  0.61512107     0.29200
H899        H  0.97289694  0.25217554  0.56990931     0.19800
H900        H  0.96342564  0.32823496  0.54246937     0.19800
C901        C  0.92735091  0.19881574  0.52111749    -0.06100
C902        C  0.90433866  0.19891290  0.51688842    -0.17200
C903        C  0.89149697  0.17973504  0.51788180     0.11100
C904        C  0.90185208  0.15893030  0.51669313    -0.06000
C905        C  0.92521810  0.15844454  0.51896727    -0.17200
C906        C  0.93776594  0.17799078  0.52296933     0.11200
S907        S  0.86214649  0.18338623  0.52314048    -0.32200
S908        S  0.96630237  0.17481778  0.53142990    -0.32200
H909        H  0.96882880  0.19531564  0.54226809     0.29200
H910        H  0.86014272  0.16472364  0.53688166     0.29200
H911        H  0.89567062  0.21451734  0.51651575     0.19800
H912        H  0.93365111  0.14274774  0.51849187     0.19800
C913        C  0.96536848  0.29950884  0.37426347    -0.06100
C914        C  0.96163670  0.27819267  0.36546585    -0.17200
C915        C  0.95798872  0.25996549  0.37907043     0.11100
C916        C  0.95676207  0.26259945  0.40258992    -0.06000
C917        C  0.96015243  0.28380100  0.41165669    -0.17200
C918        C  0.96450039  0.30216741  0.39788549     0.11200
S919        S  0.95330309  0.23377440  0.36496380    -0.32200
S920        S  0.96788432  0.32849515  0.41161132    -0.32200
H921        H  0.95362945  0.33940207  0.39682574     0.29200
H922        H  0.95940818  0.22044943  0.38299440     0.29200
H923        H  0.96230363  0.27531368  0.34760337     0.19800
H924        H  0.95801525  0.28633829  0.42945788     0.19800
C925        C  0.93101961  0.19324547  0.44013673    -0.06100
C926        C  0.91263860  0.19457510  0.45438420    -0.17200
C927        C  0.89737025  0.17720400  0.45581120     0.11100
C928        C  0.90273326  0.15598486  0.44716482    -0.06000
C929        C  0.92321572  0.15367080  0.43602045    -0.17200
C930        C  0.93675225  0.17227043  0.43136302     0.11200
S931        S  0.87033569  0.18456859  0.46627894    -0.32200
S932        S  0.95996649  0.16847429  0.41267510    -0.32200
H933        H  0.96931087  0.18966683  0.41502781     0.29200
H934        H  0.85949382  0.17809892  0.44643377     0.29200
H935        H  0.90770654  0.21065877  0.46065706     0.19800
H936        H  0.92802153  0.13760081  0.42973033     0.19800
C937        C  0.04659659  0.56908293  0.28664670    -0.06100
C938        C  0.03677352  0.57363281  0.26591110    -0.17200
C939        C  0.03887738  0.55952734  0.24756237     0.11100
C940        C  0.05205762  0.54054716  0.24912482    -0.06000
C941        C  0.06094976  0.53510501  0.27014468    -0.17200
C942        C  0.05798473  0.54900512  0.28905514     0.11200
S943        S  0.02810399  0.56880054  0.22116444    -0.32200
S944        S  0.07076986  0.54227414  0.31529536    -0.32200
H945        H  0.07843724  0.52134594  0.30873831     0.29200
H946        H  0.02472721  0.54746208  0.21231566     0.29200
H947        H  0.02759969  0.58872450  0.26372847     0.19800
H948        H  0.07191554  0.52110683  0.27121519     0.19800
C949        C  0.08231571  0.51079043  0.17650867    -0.06100
C950        C  0.07123045  0.51082559  0.15587647    -0.17200
C951        C  0.08220432  0.50495090  0.13582497     0.11100
C952        C  0.10484323  0.49837614  0.13622150    -0.06000
C953        C  0.11574486  0.49862640  0.15699610    -0.17200
C954        C  0.10500541  0.50480127  0.17679052     0.11200
S955        S  0.06670168  0.50760008  0.11033923    -0.32200
S956        S  0.12111828  0.50658210  0.20236136    -0.32200
H957        H  0.14186109  0.50102428  0.19315256     0.29200
H958        H  0.08424034  0.51813521  0.09886945     0.29200
H959        H  0.05439392  0.51695618  0.15514599     0.19800
H960        H  0.13295184  0.49374449  0.15792328     0.19800
C961        C  0.05004576  0.40130283  0.25352663    -0.06100
C962        C  0.05298882  0.40982405  0.27526138    -0.17200
C963        C  0.04875722  0.39680371  0.29432004     0.11100
C964        C  0.04163528  0.37448478  0.29175608    -0.06000
C965        C  0.03827879  0.36644583  0.26987567    -0.17200
C966        C  0.04203696  0.37942597  0.25112310     0.11200
S967        S  0.05413543  0.40930114  0.32116366    -0.32200
S968        S  0.03963818  0.36588163  0.22425340    -0.32200
H969        H  0.03325146  0.38489727  0.21273802     0.29200
H970        H  0.06449173  0.39054358  0.32989716     0.29200
H971        H  0.06022039  0.42615994  0.27739496     0.19800
H972        H  0.03244425  0.34968572  0.26705516     0.19800
C973        C  0.07512010  0.42588353  0.17823841    -0.06100
C974        C  0.06716193  0.41481137  0.15902050    -0.17200
C975        C  0.07830648  0.41665961  0.13832367     0.11100
C976        C  0.09805231  0.42946025  0.13704280    -0.06000
C977        C  0.10493743  0.44143140  0.15606459    -0.17200
C978        C  0.09360459  0.44006364  0.17624623     0.11200
S979        S  0.06772110  0.40085485  0.11499625    -0.32200
S980        S  0.10580659  0.45360372  0.20020679    -0.32200
H981        H  0.08545186  0.45734240  0.21112301     0.29200
H982        H  0.08844115  0.39748753  0.10468884     0.29200
H983        H  0.05344141  0.40318521  0.16058593     0.19800
H984        H  0.11972251  0.45176781  0.15541520     0.19800
C985        C  0.97169373  0.54403017  0.24834065    -0.06100
C986        C  0.97885422  0.56559575  0.24358312    -0.17200
C987        C  0.98102233  0.58168100  0.26020724     0.11100
C988        C  0.97991929  0.57564685  0.28303400    -0.06000
C989        C  0.97482213  0.55343026  0.28798638    -0.17200
C990        C  0.96971285  0.53792267  0.27102059     0.11200
S991        S  0.98326543  0.60975826  0.25053159    -0.32200
S992        S  0.95981372  0.51108640  0.27964070    -0.32200
H993        H  0.95285856  0.50307546  0.25873858     0.29200
H994        H  0.96785247  0.61787638  0.26622077     0.29200
H995        H  0.97912680  0.57093217  0.22632505     0.19800
H996        H  0.97419839  0.54817647  0.30521991     0.19800
C997        C  0.93566502  0.50918782  0.18100481    -0.06100
C998        C  0.91407356  0.50150213  0.18584644    -0.17200
C999        C  0.89811882  0.49817997  0.16927778     0.11100
C1000       C  0.90430041  0.49945542  0.14648881    -0.06000
C1001       C  0.92647291  0.50556352  0.14145651    -0.17200
C1002       C  0.94184298  0.51128541  0.15833366     0.11200
S1003       S  0.86993093  0.49397008  0.17887856    -0.32200
S1004       S  0.96848085  0.52221105  0.14958617    -0.32200
H1005       H  0.97648652  0.52906744  0.17051299     0.29200
H1006       H  0.86073001  0.50821002  0.16299000     0.29200
H1007       H  0.90861710  0.50107445  0.20312843     0.19800
H1008       H  0.93182730  0.50639446  0.12420343     0.19800
C1009       C  0.96645099  0.40329883  0.25112590    -0.06100
C1010       C  0.96051642  0.41124249  0.27246809    -0.17200
C1011       C  0.96421499  0.39864536  0.29186612     0.11100
C1012       C  0.97376355  0.37741752  0.28990251    -0.06000
C1013       C  0.98076277  0.37038729  0.26856233    -0.17200
C1014       C  0.97743068  0.38293779  0.24953861     0.11200
S1015       S  0.95483540  0.40983224  0.31812234    -0.32200
S1016       S  0.98395051  0.37023321  0.22300188    -0.32200
H1017       H  0.98921186  0.39016119  0.21225796     0.29200
H1018       H  0.94647851  0.38960871  0.32610825     0.29200
H1019       H  0.95127477  0.42644590  0.27384561     0.19800
H1020       H  0.98879081  0.35459740  0.26638469     0.19800
C1021       C  0.94115385  0.42859607  0.17587997    -0.06100
C1022       C  0.94748765  0.41965548  0.15495870    -0.17200
C1023       C  0.93425843  0.42239035  0.13561941     0.11100
C1024       C  0.91393990  0.43382717  0.13735277    -0.06000
C1025       C  0.90849818  0.44352259  0.15806375    -0.17200
C1026       C  0.92190952  0.44152556  0.17686656     0.11200
S1027       S  0.94304929  0.40909781  0.11012667    -0.32200
S1028       S  0.91124739  0.45187154  0.20307847    -0.32200
H1029       H  0.93229876  0.45765240  0.21161896     0.29200
H1030       H  0.92171692  0.40631273  0.10093449     0.29200
H1031       H  0.96168283  0.40882254  0.15411672     0.19800
H1032       H  0.89307389  0.45235924  0.15993292     0.19800
C1033       C  0.67093593  0.57070156  0.01676876    -0.06100
C1034       C  0.69186716  0.57710627  0.00835584    -0.17200
C1035       C  0.71068995  0.56416934  0.01082512     0.11100
C1036       C  0.70931031  0.54435019  0.02279388    -0.06000
C1037       C  0.68828120  0.53727359  0.03066205    -0.17200
C1038       C  0.66904794  0.55011958  0.02757152     0.11200
S1039       S  0.73690338  0.57545034  0.00136511    -0.32200
S1040       S  0.64331745  0.54049469  0.03965953    -0.32200
H1041       H  0.63490803  0.56158148  0.04442547     0.29200
H1042       H  0.74554270  0.55498501  0.99466844     0.29200
H1043       H  0.69374506  0.59270242  0.99990679     0.19800
H1044       H  0.68716883  0.52260317  0.04084292     0.19800
C1045       C  0.78335400  0.51520756  0.04640814    -0.06100
C1046       C  0.80445616  0.52408156  0.04127821    -0.17200
C1047       C  0.82363767  0.51753920  0.05289694     0.11100
C1048       C  0.82177468  0.50166679  0.07007186    -0.06000
C1049       C  0.80066363  0.49232337  0.07436324    -0.17200
C1050       C  0.78174871  0.49882720  0.06286604     0.11200
S1051       S  0.84949663  0.53115601  0.04608194    -0.32200
S1052       S  0.75534976  0.48788034  0.07211963    -0.32200
H1053       H  0.74570286  0.48747633  0.05076762     0.29200
H1054       H  0.85684756  0.53273504  0.06832981     0.29200
H1055       H  0.80573457  0.53745760  0.02943002     0.19800
H1056       H  0.79867163  0.47971304  0.08695329     0.19800
C1057       C  0.67473845  0.38206515  0.01903028    -0.06100
C1058       C  0.69727224  0.37617057  0.01766832    -0.17200
C1059       C  0.71450172  0.39160281  0.02013781     0.11100
C1060       C  0.70967655  0.41396628  0.02470711    -0.06000
C1061       C  0.68723370  0.41997871  0.02675963    -0.17200
C1062       C  0.66982344  0.40442553  0.02407863     0.11200
S1063       S  0.74224863  0.38081789  0.01908969    -0.32200
S1064       S  0.64194995  0.41410562  0.02845924    -0.32200
H1065       H  0.63512308  0.39532606  0.04044793     0.29200
H1066       H  0.75179513  0.39850347  0.00748571     0.29200
H1067       H  0.70178380  0.35928198  0.01392682     0.19800
H1068       H  0.68327026  0.43676037  0.03158642     0.19800
C1069       C  0.78608643  0.43235005  0.04022065    -0.06100
C1070       C  0.80097784  0.44865180  0.03263805    -0.17200
C1071       C  0.82375880  0.44794647  0.03802672     0.11100
C1072       C  0.83157243  0.43208153  0.05335683    -0.06000
C1073       C  0.81742993  0.41438936  0.05853807    -0.17200
C1074       C  0.79509387  0.41401829  0.05175417     0.11200
S1075       S  0.84160254  0.46900994  0.02657118    -0.32200
S1076       S  0.77787838  0.39109575  0.06063780    -0.32200
H1077       H  0.79529879  0.37693348  0.06640590     0.29200
H1078       H  0.86006421  0.45509027  0.02448918     0.29200
H1079       H  0.79481085  0.46286799  0.02389953     0.19800
H1080       H  0.82325632  0.40199292  0.06999779     0.19800
C1081       C  0.71286757  0.55463969  0.93680064    -0.06100
C1082       C  0.71671579  0.57449285  0.94836107    -0.17200
C1083       C  0.69976880  0.58951934  0.95238404     0.11100
C1084       C  0.67733304  0.58349321  0.94785903    -0.06000
C1085       C  0.67323868  0.56289246  0.93742027    -0.17200
C1086       C  0.69075561  0.54893043  0.93102970     0.11200
S1087       S  0.70870277  0.61663374  0.96156833    -0.32200
S1088       S  0.68387263  0.52492087  0.91431885    -0.32200
H1089       H  0.70471712  0.51479418  0.91522231     0.29200
H1090       H  0.69555510  0.62761049  0.94582069     0.29200
H1091       H  0.73373588  0.57979006  0.95143437     0.19800
H1092       H  0.65631648  0.55780731  0.93370463     0.19800
C1093       C  0.78507089  0.52508927  0.90906078    -0.06100
C1094       C  0.78126834  0.51374687  0.88905820    -0.17200
C1095       C  0.79774874  0.51247647  0.87279062     0.11100
C1096       C  0.82001564  0.51893664  0.87782275    -0.06000
C1097       C  0.82456872  0.52717457  0.89936974    -0.17200
C1098       C  0.80714884  0.53127935  0.91460730     0.11200
S1099       S  0.78813102  0.50478343  0.84534111    -0.32200
S1100       S  0.81369805  0.54593515  0.94009265    -0.32200
H1101       H  0.79324749  0.54191193  0.95078722     0.29200
H1102       H  0.79336836  0.52560298  0.83637037     0.29200
H1103       H  0.76429853  0.50957013  0.88438125     0.19800
H1104       H  0.84146943  0.53167919  0.90383893     0.19800
C1105       C  0.70990078  0.41285436  0.93567772    -0.06100
C1106       C  0.68826079  0.41584044  0.92727089    -0.17200
C1107       C  0.67051464  0.40160099  0.93323716     0.11100
C1108       C  0.67444998  0.38396025  0.94796516    -0.06000
C1109       C  0.69566097  0.38236164  0.95768150    -0.17200
C1110       C  0.71314672  0.39648671  0.95182558     0.11200
S1111       S  0.64410871  0.40541103  0.91978161    -0.32200
S1112       S  0.74042501  0.39007532  0.96208337    -0.32200
H1113       H  0.74799380  0.41206853  0.96272004     0.29200
H1114       H  0.63887133  0.38279958  0.91790888     0.29200
H1115       H  0.68570685  0.42779262  0.91418726     0.19800
H1116       H  0.69898703  0.36936527  0.96949372     0.19800
C1117       C  0.77830404  0.44190636  0.89675771    -0.06100
C1118       C  0.77392139  0.44649559  0.87418262    -0.17200
C1119       C  0.79101850  0.44993830  0.85859657     0.11100
C1120       C  0.81325589  0.45208020  0.86602311    -0.06000
C1121       C  0.81757602  0.44885968  0.88893549    -0.17200
C1122       C  0.80063778  0.44285552  0.90405885     0.11200
S1123       S  0.78409410  0.44949451  0.82918135    -0.32200
S1124       S  0.80904920  0.43593268  0.93203541    -0.32200
H1125       H  0.79011354  0.42368882  0.93820131     0.29200
H1126       H  0.76197359  0.44205248  0.83141659     0.29200
H1127       H  0.75697893  0.44482021  0.86825286     0.19800
H1128       H  0.83440832  0.45058923  0.89514169     0.19800
C1129       C  0.01719957  0.58587152  0.64635504    -0.06100
C1130       C  0.01168840  0.59237984  0.66830011    -0.17200
C1131       C  0.01823802  0.58028520  0.68678798     0.11100
C1132       C  0.03069072  0.56097602  0.68376914    -0.06000
C1133       C  0.03570564  0.55383311  0.66198136    -0.17200
C1134       C  0.02919435  0.56606649  0.64326746     0.11200
S1135       S  0.01227719  0.59159945  0.71409895    -0.32200
S1136       S  0.03824178  0.55641788  0.61625740    -0.32200
H1137       H  0.04402010  0.57756827  0.60846293     0.29200
H1138       H  0.01123550  0.57115722  0.72501364     0.29200
H1139       H  0.00213288  0.60716726  0.67128753     0.19800
H1140       H  0.04620829  0.53957707  0.65960769     0.19800
C1141       C  0.06393503  0.52358688  0.74978868    -0.06100
C1142       C  0.06186005  0.52945278  0.77242242    -0.17200
C1143       C  0.07599218  0.52066262  0.78879109     0.11100
C1144       C  0.09273242  0.50553941  0.78238147    -0.06000
C1145       C  0.09391003  0.49905515  0.75972872    -0.17200
C1146       C  0.07991008  0.50789433  0.74359505     0.11200
S1147       S  0.07335617  0.53044919  0.81722698    -0.32200
S1148       S  0.08538840  0.50117651  0.71474782    -0.32200
H1149       H  0.06286822  0.49991543  0.70867701     0.29200
H1150       H  0.05218136  0.53977137  0.81479972     0.29200
H1151       H  0.05036770  0.54237112  0.77697816     0.19800
H1152       H  0.10614259  0.48718094  0.75426537     0.19800
C1153       C  0.04728676  0.39848618  0.64073701    -0.06100
C1154       C  0.04104380  0.42069366  0.63804365    -0.17200
C1155       C  0.04396509  0.43646060  0.65531445     0.11100
C1156       C  0.05187412  0.42966181  0.67638465    -0.06000
C1157       C  0.05871763  0.40768905  0.67864403    -0.17200
C1158       C  0.05737148  0.39248664  0.66106649     0.11200
S1159       S  0.03740280  0.46473749  0.64919231    -0.32200
S1160       S  0.06945003  0.36576971  0.66560675    -0.32200
H1161       H  0.07529173  0.36225866  0.64309293     0.29200
H1162       H  0.05102559  0.47459434  0.66557429     0.29200
H1163       H  0.03327401  0.42571900  0.62262227     0.19800
H1164       H  0.06634653  0.40253494  0.69406356     0.19800
C1165       C  0.05575750  0.44013124  0.75488401    -0.06100
C1166       C  0.05152440  0.45625760  0.77121713    -0.17200
C1167       C  0.05928513  0.45367374  0.79324074     0.11100
C1168       C  0.07393212  0.43621531  0.79808422    -0.06000
C1169       C  0.07458138  0.41837665  0.78305106    -0.17200
C1170       C  0.06468588  0.41981630  0.76194554     0.11200
S1171       S  0.05270701  0.47406856  0.81423055    -0.32200
S1172       S  0.06717195  0.39657593  0.74324587    -0.32200
H1173       H  0.04864108  0.40237164  0.73032636     0.29200
H1174       H  0.03807215  0.48634396  0.80102800     0.29200
H1175       H  0.04421619  0.47172667  0.76634752     0.19800
H1176       H  0.08491717  0.40433050  0.78672336     0.19800
C1177       C  0.93779258  0.54953224  0.67743457    -0.06100
C1178       C  0.93147776  0.54412981  0.65537609    -0.17200
C1179       C  0.93496169  0.55890849  0.63754553     0.11100
C1180       C  0.94471599  0.57985450  0.64180381    -0.06000
C1181       C  0.95100389  0.58508885  0.66387393    -0.17200
C1182       C  0.94788366  0.57030612  0.68142938     0.11200
S1183       S  0.92537414  0.55146773  0.60991931    -0.32200
S1184       S  0.95526168  0.57987294  0.70893008    -0.32200
H1185       H  0.96906957  0.56182708  0.71303701     0.29200
H1186       H  0.91903234  0.52963141  0.61485656     0.29200
H1187       H  0.92278914  0.52865267  0.65236322     0.19800
H1188       H  0.95893266  0.60083005  0.66758564     0.19800
C1189       C  0.92149385  0.53155397  0.75564116    -0.06100
C1190       C  0.92902076  0.51419816  0.76893441    -0.17200
C1191       C  0.92239501  0.51237758  0.79141056     0.11100
C1192       C  0.90573663  0.52647468  0.80007194    -0.06000
C1193       C  0.90053513  0.54529157  0.78787630    -0.17200
C1194       C  0.90896928  0.54847611  0.76630702     0.11200
S1195       S  0.93381182  0.49018281  0.80734355    -0.32200
S1196       S  0.90073244  0.57339627  0.75241744    -0.32200
H1197       H  0.91763772  0.57280886  0.73631701     0.29200
H1198       H  0.93395428  0.50212167  0.82757473     0.29200
H1199       H  0.93843346  0.50091699  0.76156225     0.19800
H1200       H  0.88829819  0.55665212  0.79441967     0.19800
C1201       C  0.95499570  0.42045567  0.67691526    -0.06100
C1202       C  0.94375580  0.41892015  0.65631491    -0.17200
C1203       C  0.95227959  0.40640103  0.63851547     0.11100
C1204       C  0.97278924  0.39583087  0.64122031    -0.06000
C1205       C  0.98519232  0.39971542  0.66074921    -0.17200
C1206       C  0.97642494  0.41146154  0.67873849     0.11200
S1207       S  0.93530093  0.40279289  0.61397503    -0.32200
S1208       S  0.99237725  0.41186172  0.70422548    -0.32200
H1209       H  0.97461202  0.40614958  0.71838176     0.29200
H1210       H  0.94174390  0.38101919  0.60925948     0.29200
H1211       H  0.92714411  0.42553021  0.65492987     0.19800
H1212       H  0.00130110  0.39208785  0.66266400     0.19800
C1213       C  0.92379605  0.44448493  0.75059700    -0.06100
C1214       C  0.90905519  0.46181092  0.74752746    -0.17200
C1215       C  0.89399007  0.46789179  0.76429920     0.11100
C1216       C  0.89405133  0.45669977  0.78512477    -0.06000
C1217       C  0.91010444  0.44046721  0.78869242    -0.17200
C1218       C  0.92482202  0.43422336  0.77164190     0.11200
S1219       S  0.87520673  0.49026938  0.75853724    -0.32200
S1220       S  0.94386610  0.41216447  0.77710691    -0.32200
H1221       H  0.95908005  0.41780317  0.76014826     0.29200
H1222       H  0.87845469  0.49075679  0.73529436     0.29200
H1223       H  0.90823671  0.46946558  0.73126868     0.19800
H1224       H  0.91094307  0.43232913  0.80470543     0.19800
C1225       C  0.31122408  0.57564035  0.98878969    -0.06100
C1226       C  0.31553752  0.55586162  0.00008215    -0.17200
C1227       C  0.29878446  0.53980933  0.00321433     0.11100
C1228       C  0.27756447  0.54272084  0.99369953    -0.06000
C1229       C  0.27395143  0.56131018  0.98061956    -0.17200
C1230       C  0.28980410  0.57831511  0.97914410     0.11200
S1231       S  0.30487443  0.51668589  0.02083519    -0.32200
S1232       S  0.28133536  0.60354767  0.96582640    -0.32200
H1233       H  0.25826086  0.59952396  0.96616671     0.29200
H1234       H  0.28677283  0.50344542  0.01396094     0.29200
H1235       H  0.33182299  0.55320830  0.00721236     0.19800
H1236       H  0.25745928  0.56376173  0.97388270     0.19800
C1237       C  0.17428241  0.49155793  0.04605455    -0.06100
C1238       C  0.16758556  0.50693143  0.03006890    -0.17200
C1239       C  0.18291865  0.51559382  0.01466564     0.11100
C1240       C  0.20506496  0.50808911  0.01455342    -0.06000
C1241       C  0.21074967  0.49046092  0.02812953    -0.17200
C1242       C  0.19612149  0.48281191  0.04457102     0.11200
S1243       S  0.17413304  0.53773632  0.99695068    -0.32200
S1244       S  0.20652808  0.46289072  0.06419313    -0.32200
H1245       H  0.22904393  0.46374595  0.05784251     0.29200
H1246       H  0.19188057  0.53597536  0.98170728     0.29200
H1247       H  0.15080073  0.51323357  0.03046855     0.19800
H1248       H  0.22779086  0.48485081  0.02793625     0.19800
C1249       C  0.31165947  0.36840086  0.00256257    -0.06100
C1250       C  0.31311048  0.38857513  0.99121295    -0.17200
C1251       C  0.29406344  0.40068205  0.98567241     0.11100
C1252       C  0.27281115  0.39348511  0.99313343    -0.06000
C1253       C  0.27208822  0.37505050  0.00753003    -0.17200
C1254       C  0.29096440  0.36226592  0.01181297     0.11200
S1255       S  0.29757405  0.42306455  0.96644369    -0.32200
S1256       S  0.28729722  0.33742455  0.02778400    -0.32200
H1257       H  0.30971878  0.33578103  0.03414508     0.29200
H1258       H  0.32090796  0.42462867  0.96717128     0.29200
H1259       H  0.32890988  0.39330017  0.98388694     0.19800
H1260       H  0.25618748  0.36927270  0.01386747     0.19800
C1261       C  0.16739718  0.41974992  0.04394078    -0.06100
C1262       C  0.18919483  0.41352852  0.04954036    -0.17200
C1263       C  0.20607561  0.41187816  0.03343664     0.11100
C1264       C  0.20128032  0.41530310  0.01066954    -0.06000
C1265       C  0.17922894  0.41973650  0.00470089    -0.17200
C1266       C  0.16236279  0.42201940  0.02087857     0.11200
S1267       S  0.23347910  0.40510477  0.04301142    -0.32200
S1268       S  0.13492975  0.42787713  0.01071994    -0.32200
H1269       H  0.12448562  0.41230322  0.02467273     0.29200
H1270       H  0.24350645  0.42365590  0.03306102     0.29200
H1271       H  0.19365409  0.41137607  0.06689866     0.19800
H1272       H  0.17504489  0.42117239  0.98718136     0.19800
C1273       C  0.29248373  0.53745079  0.90855196    -0.06100
C1274       C  0.28581129  0.55942853  0.91127494    -0.17200
C1275       C  0.30129000  0.57650644  0.91474894     0.11100
C1276       C  0.32379690  0.57156736  0.91956654    -0.06000
C1277       C  0.33021873  0.54928492  0.91831162    -0.17200
C1278       C  0.31515957  0.53247213  0.91188644     0.11200
S1279       S  0.29148483  0.60404083  0.90969218    -0.32200
S1280       S  0.32635422  0.50537828  0.90674603    -0.32200
H1281       H  0.30613262  0.49402927  0.90367729     0.29200
H1282       H  0.31057133  0.61047280  0.89764714     0.29200
H1283       H  0.26886004  0.56374930  0.90712137     0.19800
H1284       H  0.34727355  0.54491223  0.92178813     0.19800
C1285       C  0.22516412  0.50604356  0.87049576    -0.06100
C1286       C  0.22481097  0.49453812  0.85004131    -0.17200
C1287       C  0.20551749  0.49204521  0.83737884     0.11100
C1288       C  0.18470571  0.49827543  0.84647659    -0.06000
C1289       C  0.18473127  0.50884577  0.86761045    -0.17200
C1290       C  0.20469666  0.51380839  0.87908712     0.11200
S1291       S  0.20943553  0.48224144  0.80912010    -0.32200
S1292       S  0.20273492  0.53115169  0.90362505    -0.32200
H1293       H  0.22374993  0.54127382  0.90174692     0.29200
H1294       H  0.19600249  0.49865105  0.79979800     0.29200
H1295       H  0.24039271  0.48939127  0.84260547     0.19800
H1296       H  0.16912855  0.51393416  0.87498834     0.19800
C1297       C  0.28524785  0.39947632  0.91594700    -0.06100
C1298       C  0.27910375  0.38155013  0.92923103    -0.17200
C1299       C  0.29491816  0.36704008  0.93767038     0.11100
C1300       C  0.31795466  0.37086096  0.93350421    -0.06000
C1301       C  0.32421172  0.39005687  0.92191933    -0.17200
C1302       C  0.30812187  0.40411137  0.91278462     0.11200
S1303       S  0.28483647  0.34392159  0.95388989    -0.32200
S1304       S  0.31768461  0.42720967  0.89646852    -0.32200
H1305       H  0.29751229  0.43869392  0.89650519     0.29200
H1306       H  0.26304356  0.34356297  0.94541928     0.29200
H1307       H  0.26156945  0.37789627  0.93146978     0.19800
H1308       H  0.34168170  0.39369239  0.91922466     0.19800
C1309       C  0.21490067  0.42549740  0.88016770    -0.06100
C1310       C  0.19513562  0.42154518  0.89228371    -0.17200
C1311       C  0.17399045  0.42514689  0.88266287     0.11100
C1312       C  0.17255951  0.43228292  0.86024864    -0.06000
C1313       C  0.19250963  0.43670878  0.84871428    -0.17200
C1314       C  0.21327169  0.43392347  0.85840484     0.11200
S1315       S  0.14973697  0.41879776  0.89915457    -0.32200
S1316       S  0.23741323  0.43984272  0.84138894    -0.32200
H1317       H  0.25136913  0.44558065  0.85940241     0.29200
H1318       H  0.13628461  0.41236770  0.88101096     0.29200
H1319       H  0.19612602  0.41434205  0.90874339     0.19800
H1320       H  0.19206763  0.44278654  0.83178344     0.19800
C1321       C  0.56792489  0.26025686  0.02483309    -0.06100
C1322       C  0.58818218  0.25615956  0.01411645    -0.17200
C1323       C  0.60410278  0.27289955  0.01093294     0.11100
C1324       C  0.59859983  0.29525424  0.01583330    -0.06000
C1325       C  0.57739018  0.29953935  0.02478742    -0.17200
C1326       C  0.56248330  0.28229827  0.03013248     0.11200
S1327       S  0.63174455  0.26456801  0.00236999    -0.32200
S1328       S  0.53762749  0.28929224  0.04540088    -0.32200
H1329       H  0.52659556  0.26890156  0.04274736     0.29200
H1330       H  0.62787109  0.24167186  0.00109083     0.29200
H1331       H  0.59270146  0.23914445  0.01104605     0.19800
H1332       H  0.57270668  0.31638176  0.02852165     0.19800
C1333       C  0.53751538  0.18822687  0.05257957    -0.06100
C1334       C  0.54736916  0.16783851  0.04723357    -0.17200
C1335       C  0.54375394  0.14901726  0.06055081     0.11100
C1336       C  0.53023477  0.15071590  0.07980231    -0.06000
C1337       C  0.51922022  0.17072932  0.08389336    -0.17200
C1338       C  0.52229247  0.18910814  0.07038536     0.11200
S1339       S  0.55854405  0.12426454  0.05342783    -0.32200
S1340       S  0.50912948  0.21445310  0.07886716    -0.32200
H1341       H  0.50754372  0.22296570  0.05719214     0.29200
H1342       H  0.56181435  0.11754539  0.07558724     0.29200
H1343       H  0.55964546  0.16714720  0.03398670     0.19800
H1344       H  0.50828488  0.17230155  0.09816010     0.19800
C1345       C  0.42395284  0.25380537  0.01772634    -0.06100
C1346       C  0.40851663  0.25030249  0.00063733    -0.17200
C1347       C  0.39289236  0.26630366  0.99514188     0.11100
C1348       C  0.39367168  0.28742782  0.00572668    -0.06000
C1349       C  0.41079599  0.29175341  0.02116468    -0.17200
C1350       C  0.42557359  0.27505898  0.02755508     0.11200
S1351       S  0.37220807  0.25879438  0.97446777    -0.32200
S1352       S  0.44520973  0.28124505  0.04946154    -0.32200
H1353       H  0.45899951  0.26305467  0.04537837     0.29200
H1354       H  0.37333281  0.23583336  0.97742954     0.29200
H1355       H  0.40712593  0.23395845  0.99325366     0.19800
H1356       H  0.41218457  0.30794295  0.02887163     0.19800
C1357       C  0.46113328  0.15023786  0.08254166    -0.06100
C1358       C  0.45588705  0.14496417  0.06015687    -0.17200
C1359       C  0.45041327  0.16144498  0.04467990     0.11100
C1360       C  0.45190156  0.18394186  0.05101225    -0.06000
C1361       C  0.45839382  0.18917986  0.07283700    -0.17200
C1362       C  0.46152476  0.17293593  0.08883815     0.11200
S1363       S  0.44040372  0.15260623  0.01764244    -0.32200
S1364       S  0.46425317  0.18290711  0.11718166    -0.32200
H1365       H  0.44839745  0.16785628  0.12560260     0.29200
H1366       H  0.44049392  0.17337718  0.00743292     0.29200
H1367       H  0.45555153  0.12786542  0.05474166     0.19800
H1368       H  0.45815720  0.20630402  0.07828026     0.19800
C1369       C  0.56761265  0.26054532  0.94049406    -0.06100
C1370       C  0.56084863  0.28200566  0.93507101    -0.17200
C1371       C  0.57499167  0.30050660  0.93834059     0.11100
C1372       C  0.59680714  0.29761214  0.94670011    -0.06000
C1373       C  0.60322109  0.27605501  0.95220944    -0.17200
C1374       C  0.58874846  0.25795866  0.95015811     0.11200
S1375       S  0.56485721  0.32693159  0.92970516    -0.32200
S1376       S  0.59900919  0.23127137  0.95801112    -0.32200
H1377       H  0.57810185  0.22287264  0.96445829     0.29200
H1378       H  0.58540281  0.33418688  0.92101699     0.29200
H1379       H  0.54510297  0.28416644  0.92664923     0.19800
H1380       H  0.61970483  0.27314690  0.95858212     0.19800
C1381       C  0.53695483  0.18696145  0.91568288    -0.06100
C1382       C  0.54884196  0.16765121  0.92055510    -0.17200
C1383       C  0.54466424  0.14767052  0.90896620     0.11100
C1384       C  0.52855435  0.14719940  0.89185865    -0.06000
C1385       C  0.51532457  0.16593791  0.88878267    -0.17200
C1386       C  0.51910299  0.18551380  0.90058817     0.11200
S1387       S  0.56156348  0.12423487  0.91550332    -0.32200
S1388       S  0.50248847  0.20898641  0.89330471    -0.32200
H1389       H  0.50517351  0.22022261  0.91369953     0.29200
H1390       H  0.56111506  0.11464589  0.89407078     0.29200
H1391       H  0.56283397  0.16867581  0.93190365     0.19800
H1392       H  0.50221568  0.16561617  0.87639101     0.19800
C1393       C  0.42437534  0.25288119  0.93630228    -0.06100
C1394       C  0.43124219  0.26947488  0.95130948    -0.17200
C1395       C  0.42174341  0.29063621  0.95089768     0.11100
C1396       C  0.40316034  0.29473644  0.93694125    -0.06000
C1397       C  0.39807761  0.27906270  0.92037303    -0.17200
C1398       C  0.40924365  0.25886672  0.91919872     0.11200
S1399       S  0.43253268  0.31085478  0.97029954    -0.32200
S1400       S  0.40200124  0.24050540  0.89648533    -0.32200
H1401       H  0.42273125  0.23010233  0.89632538     0.29200
H1402       H  0.43162954  0.32824153  0.95492469     0.29200
H1403       H  0.44277413  0.26568073  0.96451511     0.19800
H1404       H  0.38443501  0.28202520  0.90902954     0.19800
C1405       C  0.44829864  0.17867970  0.92000312    -0.06100
C1406       C  0.44628981  0.18142587  0.89687496    -0.17200
C1407       C  0.45051779  0.16418572  0.88176813     0.11100
C1408       C  0.45815885  0.14358434  0.88961158    -0.06000
C1409       C  0.46018471  0.14085491  0.91289233    -0.17200
C1410       C  0.45498164  0.15798533  0.92806883     0.11200
S1411       S  0.44474704  0.16946862  0.85278264    -0.32200
S1412       S  0.45687503  0.15335632  0.95771653    -0.32200
H1413       H  0.46470716  0.13160003  0.95638693     0.29200
H1414       H  0.43650026  0.14806184  0.84830599     0.29200
H1415       H  0.44011060  0.19682946  0.89050846     0.19800
H1416       H  0.46636153  0.12542420  0.91923685     0.19800
C1417       C  0.61537622  0.99192768  0.67430601    -0.06100
C1418       C  0.61889885  0.98012232  0.69411606    -0.17200
C1419       C  0.60451312  0.98163532  0.71236205     0.11100
C1420       C  0.58667532  0.99651905  0.71200952    -0.06000
C1421       C  0.58244043  0.00786567  0.69211667    -0.17200
C1422       C  0.59644086  0.00567234  0.67330295     0.11200
S1423       S  0.61081558  0.96547189  0.73668239    -0.32200
S1424       S  0.59017556  0.02223551  0.64936271    -0.32200
H1425       H  0.61252961  0.02767562  0.64483026     0.29200
H1426       H  0.58907278  0.96571529  0.74541217     0.29200
H1427       H  0.63289795  0.96919104  0.69545764     0.19800
H1428       H  0.56934959  0.02001108  0.69188140     0.19800
C1429       C  0.53583560  0.06267666  0.81239470    -0.06100
C1430       C  0.54201996  0.07097239  0.79134631    -0.17200
C1431       C  0.54770548  0.05708801  0.77347192     0.11100
C1432       C  0.54820470  0.03393343  0.77627263    -0.06000
C1433       C  0.54135242  0.02536557  0.79689460    -0.17200
C1434       C  0.53497839  0.03929508  0.81476108     0.11200
S1435       S  0.55599183  0.07009504  0.74768523    -0.32200
S1436       S  0.52601641  0.02594950  0.83997985    -0.32200
H1437       H  0.54175776  0.03724067  0.85328821     0.29200
H1438       H  0.55049496  0.05196801  0.73387539     0.29200
H1439       H  0.54222386  0.08860484  0.78852717     0.19800
H1440       H  0.54233528  0.00774809  0.79960463     0.19800
C1441       C  0.40873911  0.99010846  0.66452684    -0.06100
C1442       C  0.42786686  0.00224825  0.65842194    -0.17200
C1443       C  0.44265446  0.01063979  0.67458458     0.11100
C1444       C  0.43895442  0.00610646  0.69735214    -0.06000
C1445       C  0.42063496  0.99308373  0.70342180    -0.17200
C1446       C  0.40507219  0.98573015  0.68761813     0.11200
S1447       S  0.46565870  0.02754374  0.66531177    -0.32200
S1448       S  0.38002962  0.97238219  0.69801883    -0.32200
H1449       H  0.38470384  0.97389938  0.72098202     0.29200
H1450       H  0.47869744  0.02511340  0.68457461     0.29200
H1451       H  0.43111906  0.00567890  0.64099203     0.19800
H1452       H  0.41745716  0.99050186  0.72102227     0.19800
C1453       C  0.46644832  0.03468485  0.77024796    -0.06100
C1454       C  0.45450888  0.02953409  0.78981631    -0.17200
C1455       C  0.45584593  0.04317759  0.80892620     0.11100
C1456       C  0.46935838  0.06235068  0.80832708    -0.06000
C1457       C  0.48276272  0.06605737  0.78940402    -0.17200
C1458       C  0.48175938  0.05232882  0.77073203     0.11200
S1459       S  0.43828400  0.03654067  0.83236179    -0.32200
S1460       S  0.49725896  0.06056758  0.74632000    -0.32200
H1461       H  0.49921206  0.03912403  0.73749749     0.29200
H1462       H  0.43456649  0.05851397  0.83896256     0.29200
H1463       H  0.44221050  0.01633752  0.78934757     0.19800
H1464       H  0.49390418  0.08020717  0.78884582     0.19800
C1465       C  0.57158273  0.91740537  0.69515626    -0.06100
C1466       C  0.59419603  0.92023327  0.69975232    -0.17200
C1467       C  0.60985959  0.92361284  0.68285692     0.11100
C1468       C  0.60260774  0.92660510  0.66041870    -0.06000
C1469       C  0.57958173  0.92554288  0.65609392    -0.17200
C1470       C  0.56413301  0.92012244  0.67297715     0.11200
S1471       S  0.63893718  0.92302096  0.69093631    -0.32200
S1472       S  0.53545677  0.91628877  0.66480267    -0.32200
H1473       H  0.52706335  0.90818337  0.68504348     0.29200
H1474       H  0.63607527  0.91931523  0.71391444     0.29200
H1475       H  0.59982441  0.91742709  0.71665396     0.19800
H1476       H  0.57361044  0.92823147  0.63929451     0.19800
C1477       C  0.53199158  0.88988049  0.76294755    -0.06100
C1478       C  0.51375492  0.87605989  0.75851757    -0.17200
C1479       C  0.50520386  0.86200839  0.77477818     0.11100
C1480       C  0.51365862  0.86304418  0.79690026    -0.06000
C1481       C  0.53047990  0.87863700  0.80182453    -0.17200
C1482       C  0.54006335  0.89163960  0.78499387     0.11200
S1483       S  0.48437858  0.84246196  0.76547112    -0.32200
S1484       S  0.56356665  0.90894184  0.79228119    -0.32200
H1485       H  0.56321462  0.92210392  0.77308523     0.29200
H1486       H  0.49783908  0.82417982  0.76997943     0.29200
H1487       H  0.50792782  0.87419124  0.74146364     0.19800
H1488       H  0.53674531  0.88017720  0.81872064     0.19800
C1489       C  0.43711437  0.92240384  0.68555731    -0.06100
C1490       C  0.42349412  0.90390172  0.68031844    -0.17200
C1491       C  0.41212240  0.90228409  0.65988573     0.11100
C1492       C  0.41536030  0.91868618  0.64362545    -0.06000
C1493       C  0.43311336  0.93365301  0.64667474    -0.17200
C1494       C  0.44334225  0.93630042  0.66761099     0.11200
S1495       S  0.39149832  0.88072589  0.65658466    -0.32200
S1496       S  0.46231163  0.95916262  0.67035182    -0.32200
H1497       H  0.45469755  0.96526364  0.69156707     0.29200
H1498       H  0.38953074  0.88286530  0.63329164     0.29200
H1499       H  0.41885606  0.89253786  0.69342737     0.19800
H1500       H  0.43638704  0.94601179  0.63406426     0.19800
C1501       C  0.44376018  0.90711729  0.76353674    -0.06100
C1502       C  0.44661671  0.91615216  0.78504052    -0.17200
C1503       C  0.44641790  0.90277547  0.80423197     0.11100
C1504       C  0.44339107  0.87954661  0.80214229    -0.06000
C1505       C  0.43914948  0.87094217  0.78062223    -0.17200
C1506       C  0.43972673  0.88419133  0.76157673     0.11200
S1507       S  0.44893376  0.91662853  0.83082056    -0.32200
S1508       S  0.43428729  0.87087388  0.73511804    -0.32200
H1509       H  0.45082671  0.88267724  0.72351804     0.29200
H1510       H  0.43291399  0.90315168  0.84135113     0.29200
H1511       H  0.44816407  0.93389878  0.78697891     0.19800
H1512       H  0.43635300  0.85338989  0.77828025     0.19800
C1513       C  0.55173671  0.68044621  0.02557227    -0.06100
C1514       C  0.54676704  0.65847668  0.03163404    -0.17200
C1515       C  0.56217636  0.64138497  0.02820115     0.11100
C1516       C  0.58327110  0.64646541  0.01904403    -0.06000
C1517       C  0.58738971  0.66817523  0.01180238    -0.17200
C1518       C  0.57185613  0.68484642  0.01442180     0.11200
S1519       S  0.55464794  0.61410795  0.03746699    -0.32200
S1520       S  0.57999171  0.71226507  0.00612057    -0.32200
H1521       H  0.56034069  0.71565910  0.99405722     0.29200
H1522       H  0.57624345  0.60821490  0.04389805     0.29200
H1523       H  0.53160713  0.65498666  0.04082316     0.19800
H1524       H  0.60306615  0.67237747  0.00393110     0.19800
C1525       C  0.51467580  0.79097485  0.07860377    -0.06100
C1526       C  0.49964427  0.77311980  0.07723671    -0.17200
C1527       C  0.50384273  0.75471376  0.06391494     0.11100
C1528       C  0.52388670  0.75361471  0.05181898    -0.06000
C1529       C  0.53790641  0.77240438  0.05122965    -0.17200
C1530       C  0.53344670  0.79119174  0.06444775     0.11200
S1531       S  0.48470617  0.73169413  0.06604592    -0.32200
S1532       S  0.55326281  0.81369757  0.06405787    -0.32200
H1533       H  0.54986932  0.82063064  0.08623768     0.29200
H1534       H  0.48954132  0.72254804  0.04506862     0.29200
H1535       H  0.48482222  0.77302146  0.08753638     0.19800
H1536       H  0.55356681  0.77154396  0.04229692     0.19800
C1537       C  0.38859402  0.65606934  0.00614250    -0.06100
C1538       C  0.37616195  0.67373596  0.01451064    -0.17200
C1539       C  0.38620380  0.69407369  0.01971160     0.11100
C1540       C  0.40880003  0.69814674  0.01373805    -0.06000
C1541       C  0.42181694  0.67942170  0.00922053    -0.17200
C1542       C  0.41202665  0.65830046  0.00666846     0.11200
S1543       S  0.36931807  0.71380884  0.03457180    -0.32200
S1544       S  0.43016352  0.63498265  0.00483201    -0.32200
H1545       H  0.41573906  0.62079558  0.01659595     0.29200
H1546       H  0.38740106  0.72448898  0.04512514     0.29200
H1547       H  0.35830593  0.67192020  0.01637747     0.19800
H1548       H  0.43952997  0.68072758  0.00741215     0.19800
C1549       C  0.43661239  0.76768387  0.04082040    -0.06100
C1550       C  0.43385041  0.76047924  0.06289385    -0.17200
C1551       C  0.43700581  0.77491877  0.08130987     0.11100
C1552       C  0.44368517  0.79719544  0.07770196    -0.06000
C1553       C  0.44529408  0.80446602  0.05551184    -0.17200
C1554       C  0.44180742  0.79019131  0.03735018     0.11200
S1555       S  0.43152995  0.76472609  0.10907419    -0.32200
S1556       S  0.44453002  0.80185450  0.01004201    -0.32200
H1557       H  0.45711121  0.78424730  0.00188486     0.29200
H1558       H  0.42671060  0.74272916  0.10297648     0.29200
H1559       H  0.42840795  0.74362993  0.06562964     0.19800
H1560       H  0.45027325  0.82133097  0.05207276     0.19800
C1561       C  0.56143206  0.68899722  0.93698892    -0.06100
C1562       C  0.58136747  0.69566755  0.94709851    -0.17200
C1563       C  0.59748668  0.68041251  0.95348419     0.11100
C1564       C  0.59314088  0.65736081  0.95081811    -0.06000
C1565       C  0.57248113  0.65077540  0.94171513    -0.17200
C1566       C  0.55689270  0.66624142  0.93445308     0.11200
S1567       S  0.62381484  0.69133199  0.96357384    -0.32200
S1568       S  0.53207920  0.65589101  0.92091028    -0.32200
H1569       H  0.51993974  0.67553487  0.92194478     0.29200
H1570       H  0.61792924  0.71370971  0.96477574     0.29200
H1571       H  0.58516265  0.71316976  0.94803530     0.19800
H1572       H  0.56850128  0.63338403  0.93983123     0.19800
C1573       C  0.52557600  0.75679370  0.90743859    -0.06100
C1574       C  0.50502161  0.75335146  0.89709362    -0.17200
C1575       C  0.49559005  0.76965694  0.88373308     0.11100
C1576       C  0.50687257  0.79014660  0.88077157    -0.06000
C1577       C  0.52630414  0.79436051  0.89309352    -0.17200
C1578       C  0.53579011  0.77786224  0.90624121     0.11200
S1579       S  0.46952959  0.76339442  0.87003046    -0.32200
S1580       S  0.56184678  0.78396080  0.91988284    -0.32200
H1581       H  0.55996621  0.76720281  0.93592465     0.29200
H1582       H  0.46337527  0.74553560  0.88368642     0.29200
H1583       H  0.49739250  0.73708553  0.89772136     0.19800
H1584       H  0.53468480  0.81020888  0.89169182     0.19800
C1585       C  0.42141449  0.69428314  0.92967785    -0.06100
C1586       C  0.43081652  0.67674680  0.94147740    -0.17200
C1587       C  0.42342374  0.65491757  0.93782044     0.11100
C1588       C  0.40371877  0.65114200  0.92554646    -0.06000
C1589       C  0.39658814  0.66784890  0.91128738    -0.17200
C1590       C  0.40621328  0.68896204  0.91235885     0.11200
S1591       S  0.43830342  0.63231538  0.94989329    -0.32200
S1592       S  0.39664263  0.70927984  0.89300817    -0.32200
H1593       H  0.41733703  0.72031545  0.89242963     0.29200
H1594       H  0.45654737  0.64495111  0.95758607     0.29200
H1595       H  0.44249922  0.67989313  0.95477615     0.19800
H1596       H  0.38228245  0.66499597  0.90063029     0.19800
C1597       C  0.43063886  0.77108437  0.92146466    -0.06100
C1598       C  0.41859174  0.77066990  0.90133105    -0.17200
C1599       C  0.42016146  0.78779964  0.88584537     0.11100
C1600       C  0.43466476  0.80585880  0.88998946    -0.06000
C1601       C  0.44551263  0.80705032  0.91079451    -0.17200
C1602       C  0.44329421  0.79021318  0.92662945     0.11200
S1603       S  0.40341775  0.78540858  0.86099686    -0.32200
S1604       S  0.45688346  0.79453295  0.95297603    -0.32200
H1605       H  0.44181271  0.78150629  0.96519764     0.29200
H1606       H  0.40158631  0.80830101  0.85782506     0.29200
H1607       H  0.40744802  0.75699691  0.89775599     0.19800
H1608       H  0.45668932  0.82074554  0.91444175     0.19800
C1609       C  0.57686717  0.01306636  0.26817843    -0.06100
C1610       C  0.56815099  0.01323842  0.28993922    -0.17200
C1611       C  0.58127293  0.00737368  0.30842407     0.11100
C1612       C  0.60416205  0.00237335  0.30538833    -0.06000
C1613       C  0.61246993  0.00202276  0.28338639    -0.17200
C1614       C  0.59918576  0.00674893  0.26504368     0.11200
S1615       S  0.56784107  0.00715772  0.33526429    -0.32200
S1616       S  0.61254546  0.00695621  0.23798327    -0.32200
H1617       H  0.59316960  0.00190309  0.22578466     0.29200
H1618       H  0.57090052  0.98432507  0.33790833     0.29200
H1619       H  0.55131651  0.01886787  0.29266530     0.19800
H1620       H  0.62962302  0.99778092  0.28014218     0.19800
C1621       C  0.54203318  0.04195190  0.19852073    -0.06100
C1622       C  0.55084443  0.03714576  0.17721609    -0.17200
C1623       C  0.54612770  0.05046660  0.15859985     0.11100
C1624       C  0.53230435  0.06901672  0.16135202    -0.06000
C1625       C  0.52247413  0.07269022  0.18238765    -0.17200
C1626       C  0.52702373  0.05946975  0.20067195     0.11200
S1627       S  0.55998736  0.04429166  0.13265507    -0.32200
S1628       S  0.51665043  0.06832054  0.22749277    -0.32200
H1629       H  0.51541275  0.04700108  0.23652422     0.29200
H1630       H  0.56242660  0.06637552  0.12595920     0.29200
H1631       H  0.56321448  0.02436751  0.17556128     0.19800
H1632       H  0.51147080  0.08651706  0.18492129     0.19800
C1633       C  0.43035482  0.02414087  0.32419895    -0.06100
C1634       C  0.42762348  0.04335545  0.31183946    -0.17200
C1635       C  0.43373851  0.04432114  0.28922607     0.11100
C1636       C  0.44204824  0.02521145  0.27809682    -0.06000
C1637       C  0.44766144  0.00708727  0.29137017    -0.17200
C1638       C  0.44316508  0.00704935  0.31449593     0.11200
S1639       S  0.42772366  0.06934184  0.27435298    -0.32200
S1640       S  0.45235878  0.98383193  0.33039542    -0.32200
H1641       H  0.45497118  0.99590660  0.35038322     0.29200
H1642       H  0.42428273  0.08288178  0.29321571     0.29200
H1643       H  0.41820293  0.05672142  0.31918076     0.19800
H1644       H  0.45391016  0.99218470  0.28369730     0.19800
C1645       C  0.46138045  0.06980723  0.16274119    -0.06100
C1646       C  0.46430986  0.07650649  0.18512031    -0.17200
C1647       C  0.46015724  0.06230252  0.20301353     0.11100
C1648       C  0.45328255  0.04030254  0.19899175    -0.06000
C1649       C  0.44965782  0.03356660  0.17672457    -0.17200
C1650       C  0.45339064  0.04802887  0.15868196     0.11200
S1651       S  0.46187621  0.07318916  0.23106908    -0.32200
S1652       S  0.44616039  0.03814859  0.13118812    -0.32200
H1653       H  0.43713826  0.05833081  0.12434340     0.29200
H1654       H  0.46771311  0.09503337  0.22565110     0.29200
H1655       H  0.47016025  0.09307447  0.18878909     0.19800
H1656       H  0.44277298  0.01726382  0.17344613     0.19800
C1657       C  0.57178316  0.92896978  0.26714307    -0.06100
C1658       C  0.56578753  0.92072255  0.28827552    -0.17200
C1659       C  0.57973906  0.92364375  0.30704933     0.11100
C1660       C  0.60028302  0.93500454  0.30473910    -0.06000
C1661       C  0.60548254  0.94417717  0.28380150    -0.17200
C1662       C  0.59157918  0.94145328  0.26532447     0.11200
S1663       S  0.57140242  0.91072598  0.33274090    -0.32200
S1664       S  0.60161532  0.95134504  0.23880091    -0.32200
H1665       H  0.58041228  0.95454140  0.22960135     0.29200
H1666       H  0.59306986  0.90534371  0.33942460     0.29200
H1667       H  0.55119124  0.91018408  0.28970268     0.19800
H1668       H  0.62079272  0.95350615  0.28160485     0.19800
C1669       C  0.53641028  0.89971409  0.19669630    -0.06100
C1670       C  0.52285594  0.88171724  0.20249398    -0.17200
C1671       C  0.51701524  0.86536982  0.18686530     0.11100
C1672       C  0.52256132  0.86797039  0.16391884    -0.06000
C1673       C  0.53452058  0.88710025  0.15781264    -0.17200
C1674       C  0.54204948  0.90247634  0.17393969     0.11200
S1675       S  0.50400924  0.84096449  0.19806823    -0.32200
S1676       S  0.56029580  0.92439382  0.16475524    -0.32200
H1677       H  0.55821918  0.93766215  0.18399183     0.29200
H1678       H  0.52066294  0.82694134  0.18977954     0.29200
H1679       H  0.51937141  0.87875698  0.22000166     0.19800
H1680       H  0.53871137  0.88975392  0.14043354     0.19800
C1681       C  0.43003028  0.94380974  0.27098197    -0.06100
C1682       C  0.43376468  0.93371254  0.29167754    -0.17200
C1683       C  0.42201082  0.94014259  0.31098408     0.11100
C1684       C  0.40642098  0.95742625  0.30978149    -0.06000
C1685       C  0.40380650  0.96822271  0.28920715    -0.17200
C1686       C  0.41529748  0.96165621  0.27007917     0.11200
S1687       S  0.42648262  0.92460940  0.33603880    -0.32200
S1688       S  0.40794743  0.97436653  0.24403778    -0.32200
H1689       H  0.42879946  0.97128388  0.23389304     0.29200
H1690       H  0.40402468  0.92466967  0.34266097     0.29200
H1691       H  0.44420963  0.91927228  0.29232780     0.19800
H1692       H  0.39252980  0.98196538  0.28780926     0.19800
C1693       C  0.45143348  0.90478614  0.20016926    -0.06100
C1694       C  0.45337959  0.88214840  0.20464391    -0.17200
C1695       C  0.45182501  0.86622277  0.18768709     0.11100
C1696       C  0.45245723  0.87271354  0.16500388    -0.06000
C1697       C  0.45232126  0.89551968  0.16043955    -0.17200
C1698       C  0.45069484  0.91143522  0.17760484     0.11200
S1699       S  0.44642803  0.83826800  0.19653492    -0.32200
S1700       S  0.44662068  0.93969256  0.16932338    -0.32200
H1701       H  0.44193630  0.94885079  0.19036177     0.29200
H1702       H  0.43043731  0.83403892  0.17986317     0.29200
H1703       H  0.45246239  0.87665963  0.22182933     0.19800
H1704       H  0.45290196  0.90107143  0.14329909     0.19800
C1705       C  0.28930555  0.02319151  0.57256977    -0.06100
C1706       C  0.28656571  0.01485964  0.59424914    -0.17200
C1707       C  0.30423186  0.00659552  0.60659756     0.11100
C1708       C  0.32534885  0.00458879  0.59639455    -0.06000
C1709       C  0.32824175  0.01289571  0.57458808    -0.17200
C1710       C  0.31077189  0.02292827  0.56296649     0.11200
S1711       S  0.29928608  0.99968772  0.63560847    -0.32200
S1712       S  0.31755790  0.03583374  0.53670556    -0.32200
H1713       H  0.29854617  0.04885168  0.53459684     0.29200
H1714       H  0.27700437  0.00637908  0.63694293     0.29200
H1715       H  0.27042138  0.01620930  0.60217160     0.19800
H1716       H  0.34432492  0.01177122  0.56650852     0.19800
C1717       C  0.22151943  0.05865103  0.53975149    -0.06100
C1718       C  0.22414161  0.08108896  0.53486314    -0.17200
C1719       C  0.20604790  0.09470283  0.53137340     0.11100
C1720       C  0.18439241  0.08540285  0.52892493    -0.06000
C1721       C  0.18184013  0.06245614  0.53214751    -0.17200
C1722       C  0.19988000  0.04924434  0.53864382     0.11200
S1723       S  0.21221924  0.12394058  0.53210205    -0.32200
S1724       S  0.19374683  0.02097594  0.54599331    -0.32200
H1725       H  0.21398029  0.01598952  0.55629182     0.29200
H1726       H  0.19432587  0.12882363  0.54644440     0.29200
H1727       H  0.24040459  0.08877480  0.53685609     0.19800
H1728       H  0.16558673  0.05482279  0.53020301     0.19800
C1729       C  0.30965311  0.03751370  0.43598376    -0.06100
C1730       C  0.30523901  0.03429182  0.41329511    -0.17200
C1731       C  0.32228348  0.03184290  0.39753806     0.11100
C1732       C  0.34480862  0.02971747  0.40468873    -0.06000
C1733       C  0.34902226  0.03091235  0.42783553    -0.17200
C1734       C  0.33191713  0.03568996  0.44333363     0.11200
S1735       S  0.31427661  0.03330332  0.36838752    -0.32200
S1736       S  0.33968784  0.04054063  0.47204011    -0.32200
H1737       H  0.31809833  0.04025834  0.48101848     0.29200
H1738       H  0.29119025  0.03067717  0.37127616     0.29200
H1739       H  0.28839931  0.03684182  0.40754044     0.19800
H1740       H  0.36586130  0.02897106  0.43383699     0.19800
C1741       C  0.23668610  0.06878389  0.45941335    -0.06100
C1742       C  0.21863651  0.05952831  0.44743796    -0.17200
C1743       C  0.19715331  0.06897632  0.44859318     0.11100
C1744       C  0.19404414  0.08860187  0.46109776    -0.06000
C1745       C  0.21204429  0.09699509  0.47361585    -0.17200
C1746       C  0.23278160  0.08713241  0.47342174     0.11200
S1747       S  0.17451671  0.05699798  0.43279783    -0.32200
S1748       S  0.25431263  0.09991609  0.49026525    -0.32200
H1749       H  0.26640406  0.08042921  0.49336431     0.29200
H1750       H  0.18589650  0.03800722  0.42573737     0.29200
H1751       H  0.22167883  0.04580286  0.43620342     0.19800
H1752       H  0.20998755  0.11149609  0.48405402     0.19800
C1753       C  0.27702993  0.94231931  0.55987362    -0.06100
C1754       C  0.29415668  0.93190278  0.54770619    -0.17200
C1755       C  0.31600012  0.93058048  0.55640841     0.11100
C1756       C  0.32043421  0.93914734  0.57802351    -0.06000
C1757       C  0.30337623  0.95051835  0.58921595    -0.17200
C1758       C  0.28229039  0.95275210  0.58022336     0.11200
S1759       S  0.33666090  0.91657118  0.53991786    -0.32200
S1760       S  0.26186993  0.96743349  0.59657325    -0.32200
H1761       H  0.24984884  0.97495156  0.57802381     0.29200
H1762       H  0.35053297  0.91077269  0.55771509     0.29200
H1763       H  0.29019168  0.92354384  0.53213540     0.19800
H1764       H  0.30630645  0.95764146  0.60555971     0.19800
C1765       C  0.20646327  0.92177248  0.52515687    -0.06100
C1766       C  0.21536876  0.90162133  0.51817404    -0.17200
C1767       C  0.20178014  0.88388540  0.51151954     0.11100
C1768       C  0.17833541  0.88668326  0.51028846    -0.06000
C1769       C  0.16962378  0.90752634  0.51597469    -0.17200
C1770       C  0.18335052  0.92487370  0.52361146     0.11200
S1771       S  0.21516441  0.85770205  0.50624192    -0.32200
S1772       S  0.17043019  0.95034969  0.53197604    -0.32200
H1773       H  0.18983412  0.96345045  0.53108004     0.29200
H1774       H  0.23724270  0.86557862  0.50566971     0.29200
H1775       H  0.23302557  0.89902526  0.52035571     0.19800
H1776       H  0.15193871  0.91039815  0.51458856     0.19800
C1777       C  0.29078134  0.95908208  0.42015606    -0.06100
C1778       C  0.31067079  0.94779738  0.42418165    -0.17200
C1779       C  0.32958329  0.95099319  0.41060954     0.11100
C1780       C  0.32859139  0.96564617  0.39229277    -0.06000
C1781       C  0.30888374  0.97754403  0.38924566    -0.17200
C1782       C  0.29065142  0.97523474  0.40345287     0.11200
S1783       S  0.35345858  0.93429578  0.41630364    -0.32200
S1784       S  0.26619595  0.99106676  0.39741810    -0.32200
H1785       H  0.25794364  0.99072639  0.41938277     0.29200
H1786       H  0.35768158  0.92936217  0.39369787     0.29200
H1787       H  0.31074997  0.93476749  0.43647065     0.19800
H1788       H  0.30745909  0.98887048  0.37554034     0.19800
C1789       C  0.21656139  0.92828324  0.44369995    -0.06100
C1790       C  0.19529889  0.93251927  0.43485509    -0.17200
C1791       C  0.17822084  0.91630498  0.43475765     0.11100
C1792       C  0.18237404  0.89515730  0.44358623    -0.06000
C1793       C  0.20308423  0.89176635  0.45390753    -0.17200
C1794       C  0.21971278  0.90804894  0.45459230     0.11200
S1795       S  0.15247090  0.92295027  0.42123921    -0.32200
S1796       S  0.24611742  0.90072485  0.46643936    -0.32200
H1797       H  0.25084536  0.92205493  0.47458205     0.29200
H1798       H  0.14888060  0.90173528  0.41215694     0.29200
H1799       H  0.19276274  0.94766679  0.42575455     0.19800
H1800       H  0.20655880  0.87606532  0.46155552     0.19800
C1801       C  0.03898439  0.69256671  0.53560482    -0.06100
C1802       C  0.04695811  0.67082129  0.53462733    -0.17200
C1803       C  0.03798156  0.65414027  0.54823171     0.11100
C1804       C  0.02040287  0.65919448  0.56300970    -0.06000
C1805       C  0.01123644  0.68043853  0.56241787    -0.17200
C1806       C  0.02018934  0.69700866  0.54894447     0.11200
S1807       S  0.05112265  0.62757206  0.54756525    -0.32200
S1808       S  0.00858263  0.72420706  0.55174624    -0.32200
H1809       H  0.01462905  0.73136632  0.53038443     0.29200
H1810       H  0.04925072  0.62388176  0.57065711     0.29200
H1811       H  0.06182113  0.66738602  0.52499031     0.19800
H1812       H  0.99710785  0.68438237  0.57294585     0.19800
C1813       C  0.10750169  0.79810462  0.49998629    -0.06100
C1814       C  0.11835011  0.77766042  0.50101291    -0.17200
C1815       C  0.10681159  0.75795369  0.50493969     0.11100
C1816       C  0.08354721  0.75806253  0.50840769    -0.06000
C1817       C  0.07240977  0.77821411  0.50698489    -0.17200
C1818       C  0.08400426  0.79811666  0.50287295     0.11200
S1819       S  0.12309384  0.73311011  0.50657044    -0.32200
S1820       S  0.06774990  0.82285051  0.50255281    -0.32200
H1821       H  0.08173336  0.83408972  0.51775827     0.29200
H1822       H  0.10568663  0.71857202  0.50052422     0.29200
H1823       H  0.13615302  0.77677685  0.49847169     0.19800
H1824       H  0.05479118  0.77873732  0.51072184     0.19800
C1825       C  0.05789696  0.68971604  0.39713764    -0.06100
C1826       C  0.06699401  0.66899630  0.40228777    -0.17200
C1827       C  0.06272686  0.65017921  0.38881333     0.11100
C1828       C  0.04949110  0.65227292  0.36949353    -0.06000
C1829       C  0.03948058  0.67272659  0.36538826    -0.17200
C1830       C  0.04328286  0.69111101  0.37896551     0.11200
S1831       S  0.07609117  0.62477013  0.39604406    -0.32200
S1832       S  0.03217810  0.71703108  0.37002572    -0.32200
H1833       H  0.02504122  0.72323768  0.39148748     0.29200
H1834       H  0.07849088  0.61695849  0.37401448     0.29200
H1835       H  0.07894330  0.66789680  0.41573807     0.19800
H1836       H  0.02879923  0.67466108  0.35101129     0.19800
C1837       C  0.10784385  0.80413403  0.43120522    -0.06100
C1838       C  0.11310177  0.78401124  0.44142105    -0.17200
C1839       C  0.10040725  0.76490879  0.43802624     0.11100
C1840       C  0.08223268  0.76507147  0.42329403    -0.06000
C1841       C  0.07603012  0.78535210  0.41388914    -0.17200
C1842       C  0.08840840  0.80493748  0.41798044     0.11200
S1843       S  0.11017530  0.73975361  0.45025571    -0.32200
S1844       S  0.07959997  0.82980728  0.40451506    -0.32200
H1845       H  0.10112412  0.83859329  0.40150920     0.29200
H1846       H  0.08883716  0.73054430  0.45326406     0.29200
H1847       H  0.12741103  0.78301347  0.45231128     0.19800
H1848       H  0.06258476  0.78558642  0.40188338     0.19800
C1849       C  0.94929159  0.69082206  0.52294077    -0.06100
C1850       C  0.94426135  0.69580818  0.54528694    -0.17200
C1851       C  0.94270781  0.67940791  0.56152530     0.11100
C1852       C  0.94804808  0.65725423  0.55602936    -0.06000
C1853       C  0.95279650  0.65222726  0.53346055    -0.17200
C1854       C  0.95284888  0.66855619  0.51685003     0.11200
S1855       S  0.93296432  0.68805088  0.58868626    -0.32200
S1856       S  0.95808482  0.65975657  0.48845226    -0.32200
H1857       H  0.95038144  0.67853722  0.47745276     0.29200
H1858       H  0.92058457  0.66858141  0.59245805     0.29200
H1859       H  0.94016051  0.71262909  0.54988398     0.19800
H1860       H  0.95706569  0.63551785  0.52870204     0.19800
C1861       C  0.94589732  0.76677408  0.51183761    -0.06100
C1862       C  0.93429760  0.77054411  0.53200665    -0.17200
C1863       C  0.92361541  0.79065662  0.53608638     0.11100
C1864       C  0.92593112  0.80790630  0.52058311    -0.06000
C1865       C  0.94211200  0.80590099  0.50381435    -0.17200
C1866       C  0.95121392  0.78527657  0.49850753     0.11200
S1867       S  0.90474333  0.79234879  0.55943172    -0.32200
S1868       S  0.96649180  0.78267445  0.47281817    -0.32200
H1869       H  0.96809961  0.80524704  0.46771421     0.29200
H1870       H  0.90292579  0.81547738  0.55914076     0.29200
H1871       H  0.93044914  0.75671500  0.54276364     0.19800
H1872       H  0.94435692  0.81932769  0.49218628     0.19800
C1873       C  0.96987808  0.69550423  0.38879111    -0.06100
C1874       C  0.96845337  0.67435237  0.39815594    -0.17200
C1875       C  0.97333736  0.65526654  0.38545847     0.11100
C1876       C  0.97976108  0.65721594  0.36267216    -0.06000
C1877       C  0.98108265  0.67857280  0.35363730    -0.17200
C1878       C  0.97665757  0.69739729  0.36630275     0.11200
S1879       S  0.96993824  0.62910786  0.39912775    -0.32200
S1880       S  0.97806141  0.72357879  0.35206599    -0.32200
H1881       H  0.98252043  0.73634081  0.37130129     0.29200
H1882       H  0.95804958  0.61942772  0.38128707     0.29200
H1883       H  0.96205445  0.67256946  0.41498270     0.19800
H1884       H  0.98606676  0.68092908  0.33642678     0.19800
C1885       C  0.93883923  0.76182627  0.42863512    -0.06100
C1886       C  0.94229083  0.78412141  0.42304673    -0.17200
C1887       C  0.92875170  0.80098014  0.43186402     0.11100
C1888       C  0.91130044  0.79565970  0.44696140    -0.06000
C1889       C  0.90822152  0.77329438  0.45262879    -0.17200
C1890       C  0.92136860  0.75658162  0.44348035     0.11200
S1891       S  0.93359462  0.82850959  0.42175214    -0.32200
S1892       S  0.91274406  0.72839859  0.44826097    -0.32200
H1893       H  0.93445989  0.72005071  0.44873242     0.29200
H1894       H  0.91088376  0.83304329  0.41887256     0.29200
H1895       H  0.95454053  0.78823818  0.41041181     0.19800
H1896       H  0.89507156  0.76852579  0.46404872     0.19800
C1897       C  0.73332873  0.00168431  0.56343531    -0.06100
C1898       C  0.71426022  0.01476683  0.56123481    -0.17200
C1899       C  0.69535356  0.01130419  0.57481978     0.11100
C1900       C  0.69541250  0.99422922  0.59078938    -0.06000
C1901       C  0.71414356  0.98055111  0.59187760    -0.17200
C1902       C  0.73280198  0.98408346  0.57858185     0.11200
S1903       S  0.67263262  0.03019499  0.57224907    -0.32200
S1904       S  0.75698643  0.96772758  0.58411466    -0.32200
H1905       H  0.76579665  0.96922760  0.56239316     0.29200
H1906       H  0.66685394  0.02994419  0.59501753     0.29200
H1907       H  0.71488638  0.02903137  0.55044922     0.19800
H1908       H  0.71443555  0.96683148  0.60336840     0.19800
C1909       C  0.83290278  0.06947087  0.52192399    -0.06100
C1910       C  0.83836755  0.04699522  0.51944624    -0.17200
C1911       C  0.82322992  0.03003827  0.52497108     0.11100
C1912       C  0.80151113  0.03545321  0.53194260    -0.06000
C1913       C  0.79586062  0.05787441  0.53363397    -0.17200
C1914       C  0.81134478  0.07479710  0.52964475     0.11200
S1915       S  0.83294153  0.00200390  0.52293875    -0.32200
S1916       S  0.80354947  0.10294244  0.53601048    -0.32200
H1917       H  0.78111564  0.09872211  0.54128452     0.29200
H1918       H  0.81658113  0.99183823  0.53617476     0.29200
H1919       H  0.85456933  0.04250934  0.51302928     0.19800
H1920       H  0.77960101  0.06205653  0.54013115     0.19800
C1921       C  0.68541279  0.99964884  0.38801095    -0.06100
C1922       C  0.67969126  0.00607566  0.40994914    -0.17200
C1923       C  0.69602566  0.01108009  0.42607438     0.11100
C1924       C  0.71875829  0.00857185  0.42079597    -0.06000
C1925       C  0.72444800  0.00070784  0.39954910    -0.17200
C1926       C  0.70843518  0.99709542  0.38289252     0.11200
S1927       S  0.68686676  0.02179272  0.45269293    -0.32200
S1928       S  0.71848407  0.99054079  0.35507034    -0.32200
H1929       H  0.74123405  0.98895254  0.36010855     0.29200
H1930       H  0.70714008  0.01956343  0.46399269     0.29200
H1931       H  0.66234581  0.00774444  0.41449605     0.19800
H1932       H  0.74192740  0.99979425  0.39527749     0.19800
C1933       C  0.79224630  0.03515212  0.44946015    -0.06100
C1934       C  0.81123290  0.03281075  0.43575784    -0.17200
C1935       C  0.82985405  0.04711617  0.43795035     0.11100
C1936       C  0.82931333  0.06425121  0.45405652    -0.06000
C1937       C  0.81120973  0.06493774  0.46897646    -0.17200
C1938       C  0.79320000  0.05038133  0.46726493     0.11200
S1939       S  0.85236543  0.04405346  0.41831914    -0.32200
S1940       S  0.76969512  0.05506180  0.48539681    -0.32200
H1941       H  0.76176079  0.03320572  0.48449387     0.29200
H1942       H  0.85950966  0.06619580  0.41870439     0.29200
H1943       H  0.81051877  0.02150861  0.42165610     0.19800
H1944       H  0.81047402  0.07777704  0.48160424     0.19800
C1945       C  0.72117138  0.91982947  0.55712634    -0.06100
C1946       C  0.70938785  0.93889030  0.55153372    -0.17200
C1947       C  0.68704016  0.94142781  0.55787896     0.11100
C1948       C  0.67719622  0.92637888  0.57299509    -0.06000
C1949       C  0.68782344  0.90629390  0.57640337    -0.17200
C1950       C  0.70922521  0.90248671  0.56787427     0.11200
S1951       S  0.67270668  0.96541298  0.54818839    -0.32200
S1952       S  0.72196728  0.87616367  0.57319531    -0.32200
H1953       H  0.70311957  0.86566904  0.58237294     0.29200
H1954       H  0.65172741  0.95495920  0.54760361     0.29200
H1955       H  0.71778612  0.95274509  0.54391774     0.19800
H1956       H  0.68022924  0.89444304  0.58759168     0.19800
C1957       C  0.79875268  0.90240969  0.53830326    -0.06100
C1958       C  0.81822584  0.91332535  0.53134008    -0.17200
C1959       C  0.83742277  0.90146164  0.52507766     0.11100
C1960       C  0.83740333  0.87803182  0.52661483    -0.06000
C1961       C  0.81792413  0.86748676  0.53428993    -0.17200
C1962       C  0.79877009  0.87913848  0.53948553     0.11200
S1963       S  0.86164047  0.91668465  0.51571501    -0.32200
S1964       S  0.77497180  0.86308484  0.54836802    -0.32200
H1965       H  0.75920053  0.87695340  0.53866806     0.29200
H1966       H  0.85214301  0.93779407  0.51633524     0.29200
H1967       H  0.81854229  0.93118629  0.53143157     0.19800
H1968       H  0.81710837  0.84967462  0.53552768     0.19800
C1969       C  0.71402508  0.92276677  0.42178986    -0.06100
C1970       C  0.69188189  0.91574205  0.42536284    -0.17200
C1971       C  0.67497007  0.91989523  0.40973339     0.11100
C1972       C  0.68016043  0.93127246  0.38983659    -0.06000
C1973       C  0.70207708  0.93921759  0.38702467    -0.17200
C1974       C  0.71866889  0.93566787  0.40286902     0.11200
S1975       S  0.64777894  0.90841229  0.41516597    -0.32200
S1976       S  0.74625419  0.94576876  0.39676109    -0.32200
H1977       H  0.74961134  0.95427049  0.41838945     0.29200
H1978       H  0.64325781  0.90301746  0.39272410     0.29200
H1979       H  0.68818700  0.90510326  0.43937820     0.19800
H1980       H  0.70644458  0.94844380  0.37226506     0.19800
C1981       C  0.78673654  0.89315542  0.44924815    -0.06100
C1982       C  0.80513373  0.89471156  0.43470024    -0.17200
C1983       C  0.82450113  0.88230820  0.43811797     0.11100
C1984       C  0.82557553  0.86785211  0.45645493    -0.06000
C1985       C  0.80763700  0.86733904  0.47158753    -0.17200
C1986       C  0.78853510  0.87984459  0.46831646     0.11200
S1987       S  0.84630685  0.88421185  0.41753041    -0.32200
S1988       S  0.76597578  0.87629802  0.48785449    -0.32200
H1989       H  0.75660308  0.89708871  0.48449679     0.29200
H1990       H  0.85314490  0.86218055  0.41937213     0.29200
H1991       H  0.80363620  0.90415357  0.41949508     0.19800
H1992       H  0.80842637  0.85696827  0.48621533     0.19800
loop_ 
_geom_bond_atom_site_label_1 
_geom_bond_atom_site_label_2 
_geom_bond_distance 
_geom_bond_site_symmetry_2 
_ccdc_geom_bond_type 
N1            C5   1.370       .  A
N1            C2   1.369       .  A
N1           C42   1.455       .  S
C2            C3   1.378       .  A
C2         C1981   1.481       .  S
C3            C4   1.361       .  A
C3            H6   1.083       .  S
C4            C5   1.381       .  A
C4            H7   1.083       .  S
C5         C1969   1.483       .  S
N8           C12   1.375       .  A
N8            C9   1.369       .  A
N8           C39   1.457       .  S
C9           C10   1.379       .  A
C9         C1957   1.485       .  S
C10          C11   1.362       .  A
C10          H13   1.083       .  S
C11          C12   1.384       .  A
C11          H14   1.083       .  S
C12        C1945   1.502       .  S
N15          C19   1.367       .  A
N15          C16   1.370       .  A
N15          C40   1.454   1_545  S
C16          C17   1.381       .  A
C16        C1924   1.479       .  S
C17          C18   1.360       .  A
C17          H20   1.083       .  S
C18          C19   1.380       .  A
C18          H21   1.083       .  S
C19        C1933   1.479       .  S
N22          C26   1.373       .  A
N22          C23   1.368       .  A
N22          C41   1.461   1_545  S
C23          C24   1.378       .  A
C23        C1897   1.474       .  S
C24          C25   1.355       .  A
C24          H27   1.083       .  S
C25          C26   1.383       .  A
C25          H28   1.083       .  S
C26        C1912   1.480       .  S
O29         Cu37   2.051       .  S
O29          C39   1.284       .  A
O30         Cu37   2.056       .  S
O30          C40   1.283       .  A
O31         Cu37   2.043       .  S
O31          C41   1.281       .  A
O32         Cu37   2.047       .  S
O32          C42   1.281       .  A
O33         Cu38   2.047       .  S
O33          C42   1.282       .  A
O34         Cu38   2.071       .  S
O34          C41   1.285       .  A
O35         Cu38   2.034       .  S
O35          C40   1.280       .  A
O36         Cu38   2.035       .  S
O36          C39   1.277       .  A
Cu37        Cu38   2.359       .  S
N43          C47   1.372       .  A
N43          C44   1.375       .  A
N43          C83   1.463       .  S
C44          C45   1.379       .  A
C44        C1885   1.480       .  S
C45          C46   1.356       .  A
C45          H48   1.083       .  S
C46          C47   1.381       .  A
C46          H49   1.083       .  S
C47        C1873   1.480       .  S
N50          C54   1.368       .  A
N50          C51   1.368       .  A
N50          C82   1.454       .  S
C51          C52   1.382       .  A
C51        C1861   1.496       .  S
C52          C53   1.363       .  A
C52          H55   1.083       .  S
C53          C54   1.379       .  A
C53          H56   1.083       .  S
C54        C1849   1.484       .  S
N57          C61   1.370       .  A
N57          C58   1.369       .  A
N57          C81   1.455       .  S
C58          C59   1.380       .  A
C58        C1825   1.478       .  S
C59          C60   1.362       .  A
C59          H62   1.083       .  S
C60          C61   1.381       .  A
C60          H63   1.083       .  S
C61        C1840   1.481       .  S
N64          C68   1.370       .  A
N64          C65   1.366       .  A
N64          C84   1.453       .  S
C65          C66   1.378       .  A
C65        C1801   1.476       .  S
C66          C67   1.360       .  A
C66          H69   1.083       .  S
C67          C68   1.382       .  A
C67          H70   1.083       .  S
C68        C1816   1.484       .  S
O71         Cu79   2.045       .  S
O71          C81   1.282       .  A
O72         Cu79   2.038   1_655  S
O72          C82   1.281       .  A
O73         Cu79   2.060   1_655  S
O73          C83   1.283       .  A
O74         Cu79   2.049       .  S
O74          C84   1.283       .  A
O75         Cu80   2.037       .  S
O75          C84   1.279       .  A
O76         Cu80   2.069   1_655  S
O76          C83   1.284       .  A
O77         Cu80   2.036   1_655  S
O77          C82   1.277       .  A
O78         Cu80   2.046       .  S
O78          C81   1.281       .  A
Cu79        Cu80   2.358       .  S
N85          C89   1.366       .  A
N85          C86   1.373       .  A
N85         C123   1.456       .  S
C86          C87   1.381       .  A
C86        C1789   1.483       .  S
C87          C88   1.357       .  A
C87          H90   1.083       .  S
C88          C89   1.378       .  A
C88          H91   1.083       .  S
C89        C1777   1.473       .  S
N92          C96   1.361       .  A
N92          C93   1.365       .  A
N92         C125   1.449       .  S
C93          C94   1.384       .  A
C93        C1765   1.474       .  S
C94          C95   1.363       .  A
C94          H97   1.083       .  S
C95          C96   1.381       .  A
C95          H98   1.083       .  S
C96        C1753   1.484       .  S
N99         C103   1.373       .  A
N99         C100   1.368       .  A
N99         C126   1.454       .  S
C100        C101   1.380       .  A
C100       C1741   1.487       .  S
C101        C102   1.361       .  A
C101        H104   1.083       .  S
C102        C103   1.383       .  A
C102        H105   1.083       .  S
C103       C1729   1.486       .  S
N106        C110   1.375       .  A
N106        C107   1.373       .  A
N106        C124   1.462       .  S
C107        C108   1.381       .  A
C107       C1717   1.483       .  S
C108        C109   1.351       .  A
C108        H111   1.083       .  S
C109        C110   1.382       .  A
C109        H112   1.083       .  S
C110       C1705   1.482       .  S
O113       Cu121   2.064       .  S
O113        C123   1.285       .  A
O114       Cu121   2.072   1_545  S
O114        C124   1.285       .  A
O115       Cu121   2.026       .  S
O115        C125   1.278       .  A
O116       Cu121   2.034   1_545  S
O116        C126   1.279       .  A
O117       Cu122   2.052   1_545  S
O117        C126   1.283       .  A
O118       Cu122   2.041       .  S
O118        C125   1.283       .  A
O119       Cu122   2.039   1_545  S
O119        C124   1.280       .  A
O120       Cu122   2.037       .  S
O120        C123   1.279       .  A
Cu121      Cu122   2.362       .  S
N127        C131   1.373       .  A
N127        C128   1.369       .  A
N127        C165   1.460       .  S
C128        C129   1.378       .  A
C128       C1681   1.473       .  S
C129        C130   1.355       .  A
C129        H132   1.083       .  S
C130        C131   1.382       .  A
C130        H133   1.083       .  S
C131       C1693   1.479       .  S
N134        C138   1.371       .  A
N134        C135   1.372       .  A
N134        C167   1.459       .  S
C135        C136   1.380       .  A
C135       C1669   1.480       .  S
C136        C137   1.358       .  A
C136        H139   1.083       .  S
C137        C138   1.380       .  A
C137        H140   1.083       .  S
C138       C1657   1.481       .  S
N141        C145   1.376       .  A
N141        C142   1.373       .  A
N141        C168   1.461       .  S
C142        C143   1.379       .  A
C142       C1648   1.493       .  S
C143        C144   1.364       .  A
C143        H146   1.083       .  S
C144        C145   1.383       .  A
C144        H147   1.082       .  S
C145       C1636   1.506       .  S
N148        C152   1.371       .  A
N148        C149   1.370       .  A
N148        C166   1.458       .  S
C149        C150   1.380       .  A
C149       C1621   1.476       .  S
C150        C151   1.357       .  A
C150        H153   1.083       .  S
C151        C152   1.381       .  A
C151        H154   1.083       .  S
C152       C1609   1.479       .  S
O155       Cu163   2.053       .  S
O155        C165   1.282       .  A
O156       Cu163   2.057       .  S
O156        C166   1.283   1_565  A
O157       Cu163   2.053       .  S
O157        C167   1.283       .  A
O158       Cu163   2.050       .  S
O158        C168   1.284   1_565  A
O159       Cu164   2.056       .  S
O159        C168   1.281   1_565  A
O160       Cu164   2.061       .  S
O160        C167   1.283       .  A
O161       Cu164   2.051       .  S
O161        C166   1.282   1_565  A
O162       Cu164   2.060       .  S
O162        C165   1.284       .  A
Cu163      Cu164   2.359       .  S
N169        C173   1.368       .  A
N169        C170   1.372       .  A
N169        C209   1.456       .  S
C170        C171   1.383       .  A
C170       C1597   1.493       .  S
C171        C172   1.364       .  A
C171        H174   1.083       .  S
C172        C173   1.380       .  A
C172        H175   1.083       .  S
C173       C1585   1.496       .  S
N176        C180   1.364       .  A
N176        C177   1.364       .  A
N176        C208   1.449       .  S
C177        C178   1.379       .  A
C177       C1573   1.477       .  S
C178        C179   1.365       .  A
C178        H181   1.082       .  S
C179        C180   1.382       .  A
C179        H182   1.083       .  S
C180       C1561   1.476       .  S
N183        C187   1.373       .  A
N183        C184   1.373       .  A
N183        C207   1.461       .  S
C184        C185   1.376       .  A
C184       C1549   1.495       .  S
C185        C186   1.363       .  A
C185        H188   1.082       .  S
C186        C187   1.387       .  A
C186        H189   1.082   1_554  S
C187       C1540   1.517       .  S
N190        C194   1.367       .  A
N190        C191   1.363       .  A
N190        C210   1.449       .  S
C191        C192   1.378       .  A
C191       C1528   1.474       .  S
C192        C193   1.363       .  A
C192        H195   1.083       .  S
C193        C194   1.382       .  A
C193        H196   1.083       .  S
C194       C1513   1.477       .  S
O197       Cu205   2.020   1_554  S
O197        C207   1.279       .  A
O198       Cu205   2.033       .  S
O198        C208   1.280       .  A
O199       Cu205   2.039       .  S
O199        C209   1.280       .  A
O200       Cu205   2.040   1_554  S
O200        C210   1.282       .  A
O201       Cu206   2.028   1_554  S
O201        C210   1.279       .  A
O202       Cu206   2.024       .  S
O202        C209   1.277       .  A
O203       Cu206   2.040       .  S
O203        C208   1.281       .  A
O204       Cu206   2.047       .  S
O204        C207   1.280   1_556  A
Cu205      Cu206   2.355       .  S
N211        C215   1.372       .  A
N211        C212   1.374       .  A
N211        C249   1.457       .  S
C212        C213   1.387       .  A
C212       C1489   1.506       .  S
C213        C214   1.361       .  A
C213        H216   1.080       .  S
C214        C215   1.373       .  A
C214        H217   1.083       .  S
C215       C1501   1.491       .  S
N218        C222   1.368       .  A
N218        C219   1.362       .  A
N218        C251   1.451       .  S
C219        C220   1.379       .  A
C219       C1477   1.469       .  S
C220        C221   1.360       .  A
C220        H223   1.083       .  S
C221        C222   1.382       .  A
C221        H224   1.083       .  S
C222       C1465   1.478       .  S
N225        C229   1.367       .  A
N225        C226   1.361       .  A
N225        C252   1.454   1_545  S
C226        C227   1.380       .  A
C226       C1453   1.467       .  S
C227        C228   1.360       .  A
C227        H230   1.083       .  S
C228        C229   1.380       .  A
C228        H231   1.083       .  S
C229       C1444   1.470       .  S
N232        C236   1.370       .  A
N232        C233   1.375       .  A
N232        C250   1.458   1_545  S
C233        C234   1.381       .  A
C233       C1432   1.488       .  S
C234        C235   1.357       .  A
C234        H237   1.083       .  S
C235        C236   1.380       .  A
C235        H238   1.083       .  S
C236       C1420   1.480   1_545  S
O239       Cu247   2.061       .  S
O239        C249   1.281       .  A
O240       Cu247   2.077       .  S
O240        C250   1.286       .  A
O241       Cu247   2.010       .  S
O241        C251   1.275       .  A
O242       Cu247   2.032       .  S
O242        C252   1.279       .  A
O243       Cu248   2.060       .  S
O243        C252   1.284       .  A
O244       Cu248   2.062       .  S
O244        C251   1.286       .  A
O245       Cu248   2.037       .  S
O245        C250   1.279       .  A
O246       Cu248   2.018       .  S
O246        C249   1.278       .  A
Cu247      Cu248   2.360       .  S
N253        C257   1.371       .  A
N253        C254   1.373       .  A
N253        C292   1.457       .  S
C254        C255   1.385       .  A
C254       C1393   1.505       .  S
C255        C256   1.363       .  A
C255        H258   1.082       .  S
C256        C257   1.376       .  A
C256        H259   1.082       .  S
C257       C1405   1.490       .  S
N260        C264   1.365       .  A
N260        C261   1.370       .  A
N260        C294   1.451       .  S
C261        C262   1.382       .  A
C261       C1369   1.483       .  S
C262        C263   1.363       .  A
C262        H265   1.083       .  S
C263        C264   1.378       .  A
C263        H266   1.083       .  S
C264       C1381   1.478       .  S
N267        C271   1.370       .  A
N267        C268   1.370       .  A
N267        C293   1.458       .  S
C268        C269   1.380       .  A
C268       C1345   1.477       .  S
C269        C270   1.358       .  A
C269        H272   1.083       .  S
C270        C271   1.381       .  A
C270        H273   1.083       .  S
C271       C1360   1.477       .  S
N274        C278   1.367       .  A
N274        C275   1.368       .  A
N274        C291   1.454       .  S
C275        C276   1.382       .  A
C275       C1321   1.477       .  S
C276        C277   1.360       .  A
C276        H279   1.083       .  S
C277        C278   1.378       .  A
C277        H280   1.083       .  S
C278       C1333   1.476       .  S
O281       Cu289   2.063   1_554  S
O281        C291   1.285       .  A
O282       Cu289   2.062       .  S
O282        C292   1.282       .  A
O283       Cu289   2.055   1_554  S
O283        C293   1.283       .  A
O284       Cu289   2.043       .  S
O284        C294   1.281       .  A
O285       Cu290   2.035       .  S
O285        C294   1.281       .  A
O286       Cu290   2.047   1_554  S
O286        C293   1.282       .  A
O287       Cu290   2.019       .  S
O287        C292   1.280       .  A
O288       Cu290   2.025   1_554  S
O288        C291   1.279       .  A
Cu289      Cu290   2.361       .  S
N295        C299   1.368       .  A
N295        C296   1.369       .  A
N295        C334   1.452       .  S
C296        C297   1.380       .  A
C296       C1297   1.479       .  S
C297        C298   1.362       .  A
C297        H300   1.083       .  S
C298        C299   1.381       .  A
C298        H301   1.083       .  S
C299       C1309   1.486       .  S
N302        C306   1.373       .  A
N302        C303   1.373       .  A
N302        C335   1.459       .  S
C303        C304   1.379       .  A
C303       C1273   1.480       .  S
C304        C305   1.355       .  A
C304        H307   1.083       .  S
C305        C306   1.384       .  A
C305        H308   1.083       .  S
C306       C1285   1.493       .  S
N309        C313   1.367       .  A
N309        C310   1.376       .  A
N309        C336   1.459       .  S
C310        C311   1.390       .  A
C310       C1252   1.516       .  S
C311        C312   1.365       .  A
C311        H314   1.081       .  S
C312        C313   1.375       .  A
C312        H315   1.082       .  S
C313       C1264   1.491   1_556  S
N316        C320   1.364   1_556  A
N316        C317   1.366   1_556  A
N316        C333   1.453       .  S
C317        C318   1.381       .  A
C317       C1228   1.473   1_554  S
C318        C319   1.361       .  A
C318        H321   1.083       .  S
C319        C320   1.380       .  A
C319        H322   1.083       .  S
C320       C1240   1.470       .  S
O323       Cu331   2.039       .  S
O323        C333   1.280       .  A
O324       Cu331   2.051       .  S
O324        C334   1.283       .  A
O325       Cu331   2.035       .  S
O325        C335   1.281       .  A
O326       Cu331   2.033       .  S
O326        C336   1.274       .  A
O327       Cu332   2.053       .  S
O327        C336   1.286       .  A
O328       Cu332   2.064       .  S
O328        C335   1.283       .  A
O329       Cu332   2.026       .  S
O329        C334   1.278       .  A
O330       Cu332   2.046       .  S
O330        C333   1.283       .  A
Cu331      Cu332   2.358       .  S
N337        C341   1.364       .  A
N337        C338   1.363       .  A
N337        C375   1.450       .  S
C338        C339   1.380       .  A
C338       C1201   1.473       .  S
C339        C340   1.363       .  A
C339        H342   1.083       .  S
C340        C341   1.380       .  A
C340        H343   1.083       .  S
C341       C1213   1.471       .  S
N344        C348   1.370       .  A
N344        C345   1.372       .  A
N344        C377   1.458       .  S
C345        C346   1.384       .  A
C345       C1189   1.500       .  S
C346        C347   1.362       .  A
C346        H349   1.082       .  S
C347        C348   1.378       .  A
C347        H350   1.083       .  S
C348       C1177   1.492       .  S
N351        C355   1.366       .  A
N351        C352   1.372       .  A
N351        C378   1.455       .  S
C352        C353   1.384       .  A
C352       C1156   1.493       .  S
C353        C354   1.364       .  A
C353        H356   1.083       .  S
C354        C355   1.379       .  A
C354        H357   1.083       .  S
C355       C1165   1.491       .  S
N358        C362   1.363       .  A
N358        C359   1.365       .  A
N358        C376   1.450       .  S
C359        C360   1.380       .  A
C359       C1141   1.476       .  S
C360        C361   1.364       .  A
C360        H363   1.083       .  S
C361        C362   1.380       .  A
C361        H364   1.083       .  S
C362       C1132   1.472       .  S
O365       Cu373   2.037       .  S
O365        C375   1.280       .  A
O366       Cu373   2.038   1_455  S
O366        C376   1.281       .  A
O367       Cu373   2.057       .  S
O367        C377   1.282       .  A
O368       Cu373   2.050   1_455  S
O368        C378   1.282       .  A
O369       Cu374   2.031   1_455  S
O369        C378   1.280       .  A
O370       Cu374   2.032       .  S
O370        C377   1.281       .  A
O371       Cu374   2.041   1_455  S
O371        C376   1.281       .  A
O372       Cu374   2.035       .  S
O372        C375   1.281       .  A
Cu373      Cu374   2.362       .  S
N379        C383   1.371       .  A
N379        C380   1.374       .  A
N379        C419   1.459       .  S
C380        C381   1.383       .  A
C380       C1117   1.486       .  S
C381        C382   1.357       .  A
C381        H384   1.083       .  S
C382        C383   1.378       .  A
C382        H385   1.083       .  S
C383       C1105   1.479       .  S
N386        C390   1.370       .  A
N386        C387   1.367       .  A
N386        C418   1.456       .  S
C387        C388   1.380       .  A
C387       C1093   1.474       .  S
C388        C389   1.358       .  A
C388        H391   1.083       .  S
C389        C390   1.382       .  A
C389        H392   1.083       .  S
C390       C1081   1.477       .  S
N393        C397   1.368       .  A
N393        C394   1.373       .  A
N393        C417   1.459       .  S
C394        C395   1.384       .  A
C394       C1069   1.504       .  S
C395        C396   1.363       .  A
C395        H398   1.083       .  S
C396        C397   1.378       .  A
C396        H399   1.083       .  S
C397       C1060   1.487       .  S
N400        C404   1.369       .  A
N400        C401   1.368       .  A
N400        C420   1.454       .  S
C401        C402   1.380       .  A
C401       C1045   1.478       .  S
C402        C403   1.362       .  A
C402        H405   1.083       .  S
C403        C404   1.380       .  A
C403        H406   1.083       .  S
C404       C1036   1.480       .  S
O407       Cu415   2.054       .  S
O407        C417   1.286   1_556  A
O408       Cu415   2.059       .  S
O408        C418   1.283       .  A
O409       Cu415   2.045       .  S
O409        C419   1.281       .  A
O410       Cu415   2.033       .  S
O410        C420   1.279   1_556  A
O411       Cu416   2.057       .  S
O411        C420   1.284   1_556  A
O412       Cu416   2.060       .  S
O412        C419   1.283       .  A
O413       Cu416   2.037       .  S
O413        C418   1.281       .  A
O414       Cu416   2.043       .  S
O414        C417   1.279   1_556  A
Cu415      Cu416   2.361       .  S
N421        C425   1.373       .  A
N421        C422   1.370       .  A
N421        C460   1.457       .  S
C422        C423   1.381       .  A
C422       C1009   1.480       .  S
C423        C424   1.360       .  A
C423        H426   1.083       .  S
C424        C425   1.381       .  A
C424        H427   1.083       .  S
C425       C1021   1.484       .  S
N428        C432   1.375       .  A
N428        C429   1.375       .  A
N428        C462   1.465       .  S
C429        C430   1.382       .  A
C429        C997   1.480       .  S
C430        C431   1.348       .  A
C430        H433   1.083       .  S
C431        C432   1.381       .  A
C431        H434   1.083       .  S
C432        C985   1.480       .  S
N435        C439   1.366       .  A
N435        C436   1.373       .  A
N435        C461   1.458       .  S
C436        C437   1.383       .  A
C436        C961   1.483       .  S
C437        C438   1.358       .  A
C437        H440   1.083       .  S
C438        C439   1.379       .  A
C438        H441   1.083       .  S
C439        C973   1.473       .  S
N442        C446   1.372       .  A
N442        C443   1.377       .  A
N442        C459   1.463       .  S
C443        C444   1.381       .  A
C443        C949   1.489       .  S
C444        C445   1.355       .  A
C444        H447   1.083       .  S
C445        C446   1.380       .  A
C445        H448   1.083       .  S
C446        C940   1.479       .  S
O449       Cu457   2.071       .  S
O449        C459   1.286       .  A
O450       Cu457   2.063   1_655  S
O450        C460   1.285       .  A
O451       Cu457   2.040       .  S
O451        C461   1.280       .  A
O452       Cu457   2.048   1_655  S
O452        C462   1.281       .  A
O453       Cu458   2.080   1_655  S
O453        C462   1.286       .  A
O454       Cu458   2.067       .  S
O454        C461   1.286       .  A
O455       Cu458   2.038   1_655  S
O455        C460   1.279       .  A
O456       Cu458   2.057       .  S
O456        C459   1.282       .  A
Cu457      Cu458   2.360       .  S
N463        C467   1.375       .  A
N463        C464   1.370       .  A
N463        C504   1.460       .  S
C464        C465   1.380       .  A
C464        C925   1.480       .  S
C465        C466   1.354       .  A
C465        H468   1.083       .  S
C466        C467   1.382       .  A
C466        H469   1.083       .  S
C467        C916   1.484       .  S
N470        C474   1.372       .  A
N470        C471   1.377       .  A
N470        C502   1.460       .  S
C471        C472   1.386       .  A
C471        C901   1.494       .  S
C472        C473   1.351       .  A
C472        H475   1.083       .  S
C473        C474   1.379       .  A
C473        H476   1.083       .  S
C474        C889   1.476       .  S
N477        C481   1.373       .  A
N477        C478   1.369       .  A
N477        C501   1.459       .  S
C478        C479   1.378       .  A
C478        C865   1.477       .  S
C479        C480   1.358       .  A
C479        H482   1.083       .  S
C480        C481   1.383       .  A
C480        H483   1.083       .  S
C481        C880   1.484       .  S
N484        C488   1.370       .  A
N484        C485   1.371       .  A
N484        C503   1.459       .  S
C485        C486   1.380       .  A
C485        C841   1.476       .  S
C486        C487   1.357       .  A
C486        H489   1.083       .  S
C487        C488   1.380       .  A
C487        H490   1.083       .  S
C488        C853   1.475       .  S
O491       Cu499   2.057       .  S
O491        C501   1.283       .  A
O492       Cu499   2.053   1_655  S
O492        C502   1.284       .  A
O493       Cu499   2.057       .  S
O493        C503   1.283       .  A
O494       Cu499   2.060   1_655  S
O494        C504   1.283       .  A
O495       Cu500   2.050       .  S
O495        C504   1.283       .  A
O496       Cu500   2.053   1_455  S
O496        C503   1.283       .  A
O497       Cu500   2.053       .  S
O497        C502   1.280       .  A
O498       Cu500   2.057   1_455  S
O498        C501   1.283       .  A
Cu499      Cu500   2.360   1_455  S
O505       Cu513   1.990       .  S
O505        C515   1.278       .  A
O506       Cu513   1.982   1_655  S
O506        C516   1.277       .  A
O507       Cu513   1.981   1_655  S
O507        C517   1.276       .  A
O508       Cu513   1.985       .  S
O508        C518   1.276       .  A
O509       Cu514   2.047       .  S
O509        C518   1.283       .  A
O510       Cu514   2.046   1_655  S
O510        C517   1.282       .  A
O511       Cu514   2.037   1_655  S
O511        C516   1.281       .  A
O512       Cu514   2.032       .  S
O512        C515   1.280       .  A
Cu513      Cu514   2.358       .  S
C515        C964   1.502       .  S
C516        C913   1.503       .  S
C517       C1012   1.499       .  S
C518        C868   1.489       .  S
O519       Cu527   1.979       .  S
O519        C529   1.273       .  A
O520       Cu527   1.983       .  S
O520        C530   1.275       .  A
O521       Cu527   1.979       .  S
O521        C531   1.274       .  A
O522       Cu527   1.975       .  S
O522        C532   1.274       .  A
O523       Cu528   2.056       .  S
O523        C532   1.284       .  A
O524       Cu528   2.045       .  S
O524        C531   1.282       .  A
O525       Cu528   2.025       .  S
O525        C530   1.281       .  A
O526       Cu528   2.040       .  S
O526        C529   1.282       .  A
Cu527      Cu528   2.358       .  S
C529        C928   1.495       .  S
C530       C1909   1.491       .  S
C531        C904   1.498       .  S
C532       C1936   1.490       .  S
O533       Cu541   1.975       .  S
O533        C543   1.274       .  A
O534       Cu541   1.975       .  S
O534        C544   1.275       .  A
O535       Cu541   1.970       .  S
O535        C545   1.275       .  A
O536       Cu541   1.968       .  S
O536        C546   1.271       .  A
O537       Cu542   2.043       .  S
O537        C546   1.283       .  A
O538       Cu542   2.051       .  S
O538        C545   1.283       .  A
O539       Cu542   2.051       .  S
O539        C544   1.283       .  A
O540       Cu542   2.044       .  S
O540        C543   1.282       .  A
Cu541      Cu542   2.357       .  S
C543        C856   1.482       .  S
C544       C1744   1.494       .  S
C545        C877   1.500       .  S
C546       C1720   1.497       .  S
O547       Cu555   1.995       .  S
O547        C557   1.277       .  A
O548       Cu555   1.992       .  S
O548        C558   1.276       .  A
O549       Cu555   1.986       .  S
O549        C559   1.276       .  A
O550       Cu555   1.985       .  S
O550        C560   1.276       .  A
O551       Cu556   2.058       .  S
O551        C560   1.284       .  A
O552       Cu556   2.039       .  S
O552        C559   1.282       .  A
O553       Cu556   2.022       .  S
O553        C558   1.280       .  A
O554       Cu556   2.039       .  S
O554        C557   1.281       .  A
Cu555      Cu556   2.360       .  S
C557       C1072   1.493       .  S
C558       C1000   1.496       .  S
C559       C1048   1.494       .  S
C560       C1024   1.497       .  S
O561       Cu569   1.980       .  S
O561        C571   1.273       .  A
O562       Cu569   1.980       .  S
O562        C572   1.276       .  A
O563       Cu569   2.002       .  S
O563        C573   1.278       .  A
O564       Cu569   2.002       .  S
O564        C574   1.279       .  A
O565       Cu570   2.036       .  S
O565        C574   1.280       .  A
O566       Cu570   2.034       .  S
O566        C573   1.281       .  A
O567       Cu570   2.033       .  S
O567        C572   1.280       .  A
O568       Cu570   2.034       .  S
O568        C571   1.281       .  A
Cu569      Cu570   2.359       .  S
C571       C1237   1.486       .  S
C572        C976   1.485       .  S
C573       C1261   1.505       .  S
C574        C952   1.507       .  S
O575       Cu583   2.040   1_554  S
O575        C585   1.283       .  A
O576       Cu583   2.044       .  S
O576        C586   1.282       .  A
O577       Cu583   2.030       .  S
O577        C587   1.281       .  A
O578       Cu583   2.029   1_554  S
O578        C588   1.280       .  A
O579       Cu584   1.992   1_554  S
O579        C588   1.278       .  A
O580       Cu584   2.002       .  S
O580        C587   1.279       .  A
O581       Cu584   1.988       .  S
O581        C586   1.277       .  A
O582       Cu584   1.981   1_554  S
O582        C585   1.273       .  A
Cu583      Cu584   2.358       .  S
C585       C1324   1.499       .  S
C586       C1108   1.492       .  S
C587       C1372   1.501       .  S
C588       C1057   1.500       .  S
O589       Cu597   1.983       .  S
O589        C599   1.273       .  A
O590       Cu597   1.975       .  S
O590        C600   1.272       .  A
O591       Cu597   2.002       .  S
O591        C601   1.278       .  A
O592       Cu597   2.007       .  S
O592        C602   1.278       .  A
O593       Cu598   2.020       .  S
O593        C602   1.280       .  A
O594       Cu598   2.032       .  S
O594        C601   1.280       .  A
O595       Cu598   2.041       .  S
O595        C600   1.282       .  A
O596       Cu598   2.031       .  S
O596        C599   1.282       .  A
Cu597      Cu598   2.359       .  S
C599       C1216   1.487       .  S
C600       C1096   1.491       .  S
C601       C1192   1.489       .  S
C602       C1120   1.498       .  S
O603       Cu611   2.046       .  S
O603        C613   1.284       .  A
O604       Cu611   2.035   1_655  S
O604        C614   1.282       .  A
O605       Cu611   2.026   1_655  S
O605        C615   1.279       .  A
O606       Cu611   2.039       .  S
O606        C616   1.282       .  A
O607       Cu612   1.980       .  S
O607        C616   1.276       .  A
O608       Cu612   1.971   1_655  S
O608        C615   1.274       .  A
O609       Cu612   1.977   1_655  S
O609        C614   1.273       .  A
O610       Cu612   1.974       .  S
O610        C613   1.274       .  A
Cu611      Cu612   2.363       .  S
C613       C1153   1.492       .  S
C614        C892   1.494       .  S
C615       C1204   1.470       .  S
C616        C844   1.490       .  S
O617       Cu625   1.993       .  S
O617        C627   1.277       .  A
O618       Cu625   1.979       .  S
O618        C628   1.276       .  A
O619       Cu625   1.990       .  S
O619        C629   1.276       .  A
O620       Cu625   2.001       .  S
O620        C630   1.277       .  A
O621       Cu626   2.028       .  S
O621        C630   1.280       .  A
O622       Cu626   2.041       .  S
O622        C629   1.282       .  A
O623       Cu626   2.051       .  S
O623        C628   1.283       .  A
O624       Cu626   2.036       .  S
O624        C627   1.281       .  A
Cu625      Cu626   2.358       .  S
C627       C1144   1.499       .  S
C628       C1312   1.496       .  S
C629       C1168   1.488       .  S
C630       C1288   1.501       .  S
O631       Cu639   2.020       .  S
O631        C641   1.280       .  A
O632       Cu639   2.027       .  S
O632        C642   1.279       .  A
O633       Cu639   2.049       .  S
O633        C643   1.283       .  A
O634       Cu639   2.041       .  S
O634        C644   1.282       .  A
O635       Cu640   1.988       .  S
O635        C644   1.274       .  A
O636       Cu640   1.989       .  S
O636        C643   1.275       .  A
O637       Cu640   2.024       .  S
O637        C642   1.281       .  A
O638       Cu640   2.021       .  S
O638        C641   1.279       .  A
Cu639      Cu640   2.359       .  S
C641       C1249   1.493   1_556  S
C642       C1396   1.497       .  S
C643       C1300   1.496       .  S
C644       C1348   1.495   1_556  S
O645       Cu653   1.979       .  S
O645        C655   1.276       .  A
O646       Cu653   1.976       .  S
O646        C656   1.276       .  A
O647       Cu653   1.996       .  S
O647        C657   1.276       .  A
O648       Cu653   2.003       .  S
O648        C658   1.279       .  A
O649       Cu654   2.040       .  S
O649        C658   1.282       .  A
O650       Cu654   2.037       .  S
O650        C657   1.283       .  A
O651       Cu654   2.027       .  S
O651        C656   1.280       .  A
O652       Cu654   2.039       .  S
O652        C655   1.281       .  A
Cu653      Cu654   2.360       .  S
C655       C1384   1.484       .  S
C656       C1456   1.481       .  S
C657       C1408   1.499       .  S
C658       C1429   1.509       .  S
O659       Cu667   1.975       .  S
O659        C669   1.275       .  A
O660       Cu667   1.978       .  S
O660        C670   1.272       .  A
O661       Cu667   1.994       .  S
O661        C671   1.278       .  A
O662       Cu667   1.982       .  S
O662        C672   1.276       .  A
O663       Cu668   2.041       .  S
O663        C672   1.282       .  A
O664       Cu668   2.039       .  S
O664        C671   1.281       .  A
O665       Cu668   2.043       .  S
O665        C670   1.283       .  A
O666       Cu668   2.044       .  S
O666        C669   1.282       .  A
Cu667      Cu668   2.359       .  S
C669       C1624   1.490       .  S
C670       C1357   1.500       .  S
C671       C1645   1.503       .  S
C672       C1336   1.489       .  S
O673       Cu681   1.972       .  S
O673        C683   1.274       .  A
O674       Cu681   1.970       .  S
O674        C684   1.270       .  A
O675       Cu681   1.997       .  S
O675        C685   1.277       .  A
O676       Cu681   1.995       .  S
O676        C686   1.276       .  A
O677       Cu682   2.032       .  S
O677        C686   1.282       .  A
O678       Cu682   2.010       .  S
O678        C685   1.277       .  A
O679       Cu682   2.043       .  S
O679        C684   1.283       .  A
O680       Cu682   2.059       .  S
O680        C683   1.284       .  A
Cu681      Cu682   2.357       .  S
C683       C1756   1.492       .  S
C684       C1441   1.494       .  S
C685       C1708   1.492   1_565  S
C686       C1492   1.487       .  S
O687       Cu695   1.992       .  S
O687        C697   1.276       .  A
O688       Cu695   1.991       .  S
O688        C698   1.275       .  A
O689       Cu695   2.001       .  S
O689        C699   1.277       .  A
O690       Cu695   2.005       .  S
O690        C700   1.279       .  A
O691       Cu696   2.034       .  S
O691        C700   1.281       .  A
O692       Cu696   2.031       .  S
O692        C699   1.281       .  A
O693       Cu696   2.009       .  S
O693        C698   1.278       .  A
O694       Cu696   2.019       .  S
O694        C697   1.280       .  A
Cu695      Cu696   2.362       .  S
C697       C1600   1.488       .  S
C698       C1480   1.485       .  S
C699       C1576   1.488       .  S
C700       C1504   1.507       .  S
O701       Cu709   1.988       .  S
O701        C711   1.274       .  A
O702       Cu709   2.003       .  S
O702        C712   1.278       .  A
O703       Cu709   1.994       .  S
O703        C713   1.275       .  A
O704       Cu709   2.001       .  S
O704        C714   1.278       .  A
O705       Cu710   2.050       .  S
O705        C714   1.282       .  A
O706       Cu710   2.031       .  S
O706        C713   1.282       .  A
O707       Cu710   2.022       .  S
O707        C712   1.279       .  A
O708       Cu710   2.024       .  S
O708        C711   1.280       .  A
Cu709      Cu710   2.359       .  S
C711       C1225   1.495       .  S
C712       C1588   1.486       .  S
C713       C1276   1.500       .  S
C714       C1537   1.498   1_556  S
O715       Cu723   1.992       .  S
O715        C725   1.276       .  A
O716       Cu723   1.985       .  S
O716        C726   1.277       .  A
O717       Cu723   2.003       .  S
O717        C727   1.277       .  A
O718       Cu723   2.016       .  S
O718        C728   1.277       .  A
O719       Cu724   2.022       .  S
O719        C728   1.282       .  A
O720       Cu724   2.027       .  S
O720        C727   1.281       .  A
O721       Cu724   2.029       .  S
O721        C726   1.279       .  A
O722       Cu724   2.019       .  S
O722        C725   1.280       .  A
Cu723      Cu724   2.359       .  S
C725       C1696   1.497       .  S
C726       C1525   1.478       .  S
C727       C1672   1.499       .  S
C728       C1552   1.504       .  S
O729       Cu737   2.020       .  S
O729        C739   1.279       .  A
O730       Cu737   2.044   1_545  S
O730        C740   1.282       .  A
O731       Cu737   2.060   1_545  S
O731        C741   1.285       .  A
O732       Cu737   2.040       .  S
O732        C742   1.282       .  A
O733       Cu738   1.978   1_565  S
O733        C742   1.275       .  A
O734       Cu738   1.977       .  S
O734        C741   1.271       .  A
O735       Cu738   1.993       .  S
O735        C740   1.277       .  A
O736       Cu738   2.001   1_565  S
O736        C739   1.279       .  A
Cu737      Cu738   2.356   1_565  S
C739       C1780   1.495       .  S
C740       C1633   1.491       .  S
C741       C1732   1.508       .  S
C742       C1684   1.492       .  S
O743       Cu751   1.985       .  S
O743        C753   1.274       .  A
O744       Cu751   1.987       .  S
O744        C754   1.277       .  A
O745       Cu751   1.993       .  S
O745        C755   1.278       .  A
O746       Cu751   1.997       .  S
O746        C756   1.278       .  A
O747       Cu752   2.031       .  S
O747        C756   1.280       .  A
O748       Cu752   2.043       .  S
O748        C755   1.283       .  A
O749       Cu752   2.035       .  S
O749        C754   1.281       .  A
O750       Cu752   2.022       .  S
O750        C753   1.281       .  A
Cu751      Cu752   2.358       .  S
C753       C1768   1.496       .  S
C754       C1837   1.492       .  S
C755       C1792   1.500       .  S
C756       C1813   1.503       .  S
O757       Cu765   1.976   1_655  S
O757        C767   1.273       .  A
O758       Cu765   1.976       .  S
O758        C768   1.275       .  A
O759       Cu765   1.983       .  S
O759        C769   1.276       .  A
O760       Cu765   1.989   1_655  S
O760        C770   1.277       .  A
O761       Cu766   2.036   1_655  S
O761        C770   1.280       .  A
O762       Cu766   2.045       .  S
O762        C769   1.282       .  A
O763       Cu766   2.042       .  S
O763        C768   1.282       .  A
O764       Cu766   2.036   1_655  S
O764        C767   1.282       .  A
Cu765      Cu766   2.359       .  S
C767        C988   1.497       .  S
C768       C1828   1.488       .  S
C769        C937   1.493       .  S
C770       C1876   1.502       .  S
O771       Cu779   2.001       .  S
O771        C781   1.278       .  A
O772       Cu779   1.996       .  S
O772        C782   1.276       .  A
O773       Cu779   1.984       .  S
O773        C783   1.277       .  A
O774       Cu779   2.005       .  S
O774        C784   1.279       .  A
O775       Cu780   2.042       .  S
O775        C784   1.282       .  A
O776       Cu780   2.031       .  S
O776        C783   1.280       .  A
O777       Cu780   2.021       .  S
O777        C782   1.280       .  A
O778       Cu780   2.025       .  S
O778        C781   1.280       .  A
Cu779      Cu780   2.362       .  S
C781       C1984   1.488       .  S
C782       C1864   1.481       .  S
C783       C1960   1.500       .  S
C784       C1888   1.503       .  S
O785       Cu793   2.042       .  S
O785        C795   1.283       .  A
O786       Cu793   2.043       .  S
O786        C796   1.282       .  A
O787       Cu793   2.030       .  S
O787        C797   1.281       .  A
O788       Cu793   2.030       .  S
O788        C798   1.279       .  A
O789       Cu794   1.992       .  S
O789        C798   1.278       .  A
O790       Cu794   1.997       .  S
O790        C797   1.278       .  A
O791       Cu794   1.989       .  S
O791        C796   1.277       .  A
O792       Cu794   1.986       .  S
O792        C795   1.273       .  A
Cu793      Cu794   2.357       .  S
C795       C1921   1.503       .  S
C796       C1660   1.496       .  S
C797       C1972   1.495       .  S
C798       C1612   1.502   1_565  S
O799       Cu807   1.985   1_455  S
O799        C809   1.277       .  A
O800       Cu807   1.986       .  S
O800        C810   1.275       .  A
O801       Cu807   2.000       .  S
O801        C811   1.278       .  A
O802       Cu807   1.991   1_455  S
O802        C812   1.277       .  A
O803       Cu808   2.025   1_455  S
O803        C812   1.279       .  A
O804       Cu808   2.028       .  S
O804        C811   1.280       .  A
O805       Cu808   2.032       .  S
O805        C810   1.282       .  A
O806       Cu808   2.026   1_455  S
O806        C809   1.280       .  A
Cu807      Cu808   2.362       .  S
C809       C1129   1.491       .  S
C810       C1852   1.499       .  S
C811       C1180   1.495       .  S
C812       C1804   1.483       .  S
O813       Cu821   1.974       .  S
O813        C823   1.275       .  A
O814       Cu821   1.968       .  S
O814        C824   1.270       .  A
O815       Cu821   1.997       .  S
O815        C825   1.277       .  A
O816       Cu821   2.002       .  S
O816        C826   1.279       .  A
O817       Cu822   2.025       .  S
O817        C826   1.280       .  A
O818       Cu822   2.035       .  S
O818        C825   1.280       .  A
O819       Cu822   2.045       .  S
O819        C824   1.283       .  A
O820       Cu822   2.044       .  S
O820        C823   1.282       .  A
Cu821      Cu822   2.357       .  S
C823       C1900   1.489       .  S
C824       C1468   1.498       .  S
C825       C1948   1.485       .  S
C826       C1417   1.499       .  S
O827       Cu835   2.036       .  S
O827        C837   1.283       .  A
O828       Cu835   2.050   1_554  S
O828        C838   1.283       .  A
O829       Cu835   2.033   1_554  S
O829        C839   1.281       .  A
O830       Cu835   2.026       .  S
O830        C840   1.280       .  A
O831       Cu836   1.986       .  S
O831        C840   1.274       .  A
O832       Cu836   1.977   1_554  S
O832        C839   1.276       .  A
O833       Cu836   1.981   1_554  S
O833        C838   1.276       .  A
O834       Cu836   1.990       .  S
O834        C837   1.273       .  A
Cu835      Cu836   2.359       .  S
C837       C1564   1.501       .  S
C838       C1033   1.492       .  S
C839       C1516   1.488       .  S
C840       C1084   1.496       .  S
C841        C842   1.411       .  A
C841        C846   1.407       .  A
C842        C843   1.413       .  A
C842        H851   1.084       .  S
C843        C844   1.413       .  A
C843        S847   1.801       .  S
C844        C845   1.406       .  A
C845        C846   1.392       .  A
C845        H852   1.080       .  S
C846        S848   1.805       .  S
S847        H850   1.407       .  S
S848        H849   1.405       .  S
C853        C854   1.414       .  A
C853        C858   1.404       .  A
C854        C855   1.412       .  A
C854        H863   1.084       .  S
C855        C856   1.410       .  A
C855        S859   1.802       .  S
C856        C857   1.405       .  A
C857        C858   1.389       .  A
C857        H864   1.081       .  S
C858        S860   1.800       .  S
S859        H862   1.405       .  S
S860        H861   1.402       .  S
C865        C866   1.410       .  A
C865        C870   1.402       .  A
C866        C867   1.412       .  A
C866        H875   1.084       .  S
C867        C868   1.412       .  A
C867        S871   1.801       .  S
C868        C869   1.408       .  A
C869        C870   1.398       .  A
C869        H876   1.081       .  S
C870        S872   1.804       .  S
S871        H874   1.406       .  S
S872        H873   1.407       .  S
C877        C878   1.406       .  A
C877        C882   1.423       .  A
C878        C879   1.392       .  A
C878        H887   1.083       .  S
C879        C880   1.415       .  A
C879        S883   1.807       .  S
C880        C881   1.404       .  A
C881        C882   1.413       .  A
C881        H888   1.083       .  S
C882        S884   1.798       .  S
S883        H886   1.405       .  S
S884        H885   1.407       .  S
C889        C890   1.399       .  A
C889        C894   1.414       .  A
C890        C891   1.392       .  A
C890        H899   1.085       .  S
C891        C892   1.421       .  A
C891        S895   1.806       .  S
C892        C893   1.410       .  A
C893        C894   1.410       .  A
C893        H900   1.083       .  S
C894        S896   1.804       .  S
S895        H898   1.408       .  S
S896        H897   1.404       .  S
C901        C902   1.408       .  A
C901        C906   1.420       .  A
C902        C903   1.390       .  A
C902        H911   1.085       .  S
C903        C904   1.413       .  A
C903        S907   1.808       .  S
C904        C905   1.413       .  A
C905        C906   1.417       .  A
C905        H912   1.083       .  S
C906        S908   1.803       .  S
S907        H910   1.408       .  S
S908        H909   1.404       .  S
C913        C914   1.407       .  A
C913        C918   1.423       .  A
C914        C915   1.393       .  A
C914        H923   1.083       .  S
C915        C916   1.418       .  A
C915        S919   1.812       .  S
C916        C917   1.404       .  A
C917        C918   1.413       .  A
C917        H924   1.083       .  S
C918        S920   1.799       .  S
S919        H922   1.405       .  S
S920        H921   1.408       .  S
C925        C926   1.398       .  A
C925        C930   1.417       .  A
C926        C927   1.392       .  A
C926        H935   1.086       .  S
C927        C928   1.422       .  A
C927        S931   1.801       .  S
C928        C929   1.408       .  A
C929        C930   1.413       .  A
C929        H936   1.083       .  S
C930        S932   1.803       .  S
S931        H934   1.408       .  S
S932        H933   1.402       .  S
C937        C938   1.407       .  A
C937        C942   1.411       .  A
C938        C939   1.393       .  A
C938        H947   1.082       .  S
C939        C940   1.408       .  A
C939        S943   1.806       .  S
C940        C941   1.412       .  A
C941        C942   1.418       .  A
C941        H948   1.083       .  S
C942        S944   1.803       .  S
S943        H946   1.406       .  S
S944        H945   1.407       .  S
C949        C950   1.405       .  A
C949        C954   1.416       .  A
C950        C951   1.414       .  A
C950        H959   1.084       .  S
C951        C952   1.423       .  A
C951        S955   1.799       .  S
C952        C953   1.408       .  A
C953        C954   1.399       .  A
C953        H960   1.081       .  S
C954        S956   1.816       .  S
S955        H958   1.408       .  S
S956        H957   1.406       .  S
C961        C962   1.407       .  A
C961        C966   1.412       .  A
C962        C963   1.414       .  A
C962        H971   1.084       .  S
C963        C964   1.422       .  A
C963        S967   1.800       .  S
C964        C965   1.408       .  A
C965        C966   1.393       .  A
C965        H972   1.083       .  S
C966        S968   1.806       .  S
S967        H970   1.407       .  S
S968        H969   1.405       .  S
C973        C974   1.410       .  A
C973        C978   1.403       .  A
C974        C975   1.413       .  A
C974        H983   1.084       .  S
C975        C976   1.414       .  A
C975        S979   1.801       .  S
C976        C977   1.406       .  A
C977        C978   1.389       .  A
C977        H984   1.083       .  S
C978        S980   1.801       .  S
S979        H982   1.406       .  S
S980        H981   1.406       .  S
C985        C986   1.403       .  A
C985        C990   1.415       .  A
C986        C987   1.393       .  A
C986        H995   1.086       .  S
C987        C988   1.419       .  A
C987        S991   1.806       .  S
C988        C989   1.411       .  A
C989        C990   1.410       .  A
C989        H996   1.083       .  S
C990        S992   1.805       .  S
S991        H994   1.408       .  S
S992        H993   1.402       .  S
C997        C998   1.405       .  A
C997       C1002   1.413       .  A
C998        C999   1.394       .  A
C998       H1007   1.086       .  S
C999       C1000   1.416       .  A
C999       S1003   1.805       .  S
C1000      C1001   1.413       .  A
C1001      C1002   1.410       .  A
C1001      H1008   1.083       .  S
C1002      S1004   1.805       .  S
S1003      H1006   1.408       .  S
S1004      H1005   1.402       .  S
C1009      C1010   1.409       .  A
C1009      C1014   1.408       .  A
C1010      C1011   1.415       .  A
C1010      H1019   1.084       .  S
C1011      C1012   1.418       .  A
C1011      S1015   1.799       .  S
C1012      C1013   1.409       .  A
C1013      C1014   1.391       .  A
C1013      H1020   1.083       .  S
C1014      S1016   1.805       .  S
S1015      H1018   1.407       .  S
S1016      H1017   1.406       .  S
C1021      C1022   1.414       .  A
C1021      C1026   1.406       .  A
C1022      C1023   1.418       .  A
C1022      H1031   1.083       .  S
C1023      C1024   1.415       .  A
C1023      S1027   1.801       .  S
C1024      C1025   1.408       .  A
C1025      C1026   1.393       .  A
C1025      H1032   1.081       .  S
C1026      S1028   1.805       .  S
S1027      H1030   1.405       .  S
S1028      H1029   1.406       .  S
C1033      C1034   1.407       .  A
C1033      C1038   1.413       .  A
C1034      C1035   1.393       .  A
C1034      H1043   1.080   1_554  S
C1035      C1036   1.405       .  A
C1035      S1039   1.804       .  S
C1036      C1037   1.412       .  A
C1037      C1038   1.415       .  A
C1037      H1044   1.084       .  S
C1038      S1040   1.801       .  S
S1039      H1042   1.405   1_554  S
S1040      H1041   1.406       .  S
C1045      C1046   1.407       .  A
C1045      C1050   1.407       .  A
C1046      C1047   1.411       .  A
C1046      H1055   1.084       .  S
C1047      C1048   1.417       .  A
C1047      S1051   1.800       .  S
C1048      C1049   1.409       .  A
C1049      C1050   1.393       .  A
C1049      H1056   1.083       .  S
C1050      S1052   1.802       .  S
S1051      H1054   1.407       .  S
S1052      H1053   1.405       .  S
C1057      C1058   1.407       .  A
C1057      C1062   1.420       .  A
C1058      C1059   1.396       .  A
C1058      H1067   1.083       .  S
C1059      C1060   1.413       .  A
C1059      S1063   1.800       .  S
C1060      C1061   1.407       .  A
C1061      C1062   1.410       .  A
C1061      H1068   1.084       .  S
C1062      S1064   1.800       .  S
S1063      H1066   1.399       .  S
S1064      H1065   1.408       .  S
C1069      C1070   1.404       .  A
C1069      C1074   1.425       .  A
C1070      C1071   1.410       .  A
C1070      H1079   1.081       .  S
C1071      C1072   1.419       .  A
C1071      S1075   1.798       .  S
C1072      C1073   1.398       .  A
C1073      C1074   1.404       .  A
C1073      H1080   1.083       .  S
C1074      S1076   1.807       .  S
S1075      H1078   1.406       .  S
S1076      H1077   1.407       .  S
C1081      C1082   1.400       .  A
C1081      C1086   1.413       .  A
C1082      C1083   1.393       .  A
C1082      H1091   1.085       .  S
C1083      C1084   1.420       .  A
C1083      S1087   1.805       .  S
C1084      C1085   1.411       .  A
C1085      C1086   1.409       .  A
C1085      H1092   1.083       .  S
C1086      S1088   1.804       .  S
S1087      H1090   1.408       .  S
S1088      H1089   1.403       .  S
C1093      C1094   1.394       .  A
C1093      C1098   1.415       .  A
C1094      C1095   1.391       .  A
C1094      H1103   1.086       .  S
C1095      C1096   1.423       .  A
C1095      S1099   1.800       .  S
C1096      C1097   1.406       .  A
C1097      C1098   1.411       .  A
C1097      H1104   1.083       .  S
C1098      S1100   1.802       .  S
S1099      H1102   1.408       .  S
S1100      H1101   1.405       .  S
C1105      C1106   1.411       .  A
C1105      C1110   1.406       .  A
C1106      C1107   1.412       .  A
C1106      H1115   1.084       .  S
C1107      C1108   1.414       .  A
C1107      S1111   1.800       .  S
C1108      C1109   1.408       .  A
C1109      C1110   1.395       .  A
C1109      H1116   1.083       .  S
C1110      S1112   1.801       .  S
S1111      H1114   1.406       .  S
S1112      H1113   1.404       .  S
C1117      C1118   1.409       .  A
C1117      C1122   1.414       .  A
C1118      C1119   1.402       .  A
C1118      H1127   1.083       .  S
C1119      C1120   1.415       .  A
C1119      S1123   1.811       .  S
C1120      C1121   1.413       .  A
C1121      C1122   1.409       .  A
C1121      H1128   1.083       .  S
C1122      S1124   1.805       .  S
S1123      H1126   1.407       .  S
S1124      H1125   1.403       .  S
C1129      C1130   1.409       .  A
C1129      C1134   1.418       .  A
C1130      C1131   1.393       .  A
C1130      H1139   1.083       .  S
C1131      C1132   1.406       .  A
C1131      S1135   1.805       .  S
C1132      C1133   1.405       .  A
C1133      C1134   1.407       .  A
C1133      H1140   1.084       .  S
C1134      S1136   1.801       .  S
S1135      H1138   1.406       .  S
S1136      H1137   1.407       .  S
C1141      C1142   1.404       .  A
C1141      C1146   1.406       .  A
C1142      C1143   1.410       .  A
C1142      H1151   1.083       .  S
C1143      C1144   1.419       .  A
C1143      S1147   1.806       .  S
C1144      C1145   1.411       .  A
C1145      C1146   1.397       .  A
C1145      H1152   1.083       .  S
C1146      S1148   1.802       .  S
S1147      H1150   1.407       .  S
S1148      H1149   1.404       .  S
C1153      C1154   1.412       .  A
C1153      C1158   1.413       .  A
C1154      C1155   1.412       .  A
C1154      H1163   1.083       .  S
C1155      C1156   1.416       .  A
C1155      S1159   1.803       .  S
C1156      C1157   1.406       .  A
C1157      C1158   1.395       .  A
C1157      H1164   1.082       .  S
C1158      S1160   1.805       .  S
S1159      H1162   1.405       .  S
S1160      H1161   1.408       .  S
C1165      C1166   1.402       .  A
C1165      C1170   1.417       .  A
C1166      C1167   1.411       .  A
C1166      H1175   1.082       .  S
C1167      C1168   1.416       .  A
C1167      S1171   1.802       .  S
C1168      C1169   1.402       .  A
C1169      C1170   1.402       .  A
C1169      H1176   1.084       .  S
C1170      S1172   1.799       .  S
S1171      H1174   1.407       .  S
S1172      H1173   1.407       .  S
C1177      C1178   1.410       .  A
C1177      C1182   1.411       .  A
C1178      C1179   1.413       .  A
C1178      H1187   1.083       .  S
C1179      C1180   1.414       .  A
C1179      S1183   1.805       .  S
C1180      C1181   1.408       .  A
C1181      C1182   1.398       .  A
C1181      H1188   1.083       .  S
C1182      S1184   1.797       .  S
S1183      H1186   1.407       .  S
S1184      H1185   1.404       .  S
C1189      C1190   1.404       .  A
C1189      C1194   1.425       .  A
C1190      C1191   1.408       .  A
C1190      H1199   1.080       .  S
C1191      C1192   1.418       .  A
C1191      S1195   1.799       .  S
C1192      C1193   1.398       .  A
C1193      C1194   1.401       .  A
C1193      H1200   1.084       .  S
C1194      S1196   1.805       .  S
S1195      H1198   1.406       .  S
S1196      H1197   1.400       .  S
C1201      C1202   1.410       .  A
C1201      C1206   1.410       .  A
C1202      C1203   1.403       .  A
C1202      H1211   1.084       .  S
C1203      C1204   1.406       .  A
C1203      S1207   1.802       .  S
C1204      C1205   1.405       .  A
C1205      C1206   1.392       .  A
C1205      H1212   1.085   1_655  S
C1206      S1208   1.804       .  S
S1207      H1210   1.406       .  S
S1208      H1209   1.405       .  S
C1213      C1214   1.395       .  A
C1213      C1218   1.412       .  A
C1214      C1215   1.401       .  A
C1214      H1223   1.083       .  S
C1215      C1216   1.425       .  A
C1215      S1219   1.810       .  S
C1216      C1217   1.404       .  A
C1217      C1218   1.402       .  A
C1217      H1224   1.083       .  S
C1218      S1220   1.802       .  S
S1219      H1222   1.406       .  S
S1220      H1221   1.407       .  S
C1225      C1226   1.408   1_556  A
C1225      C1230   1.424       .  A
C1226      C1227   1.406       .  A
C1226      H1235   1.083       .  S
C1227      C1228   1.412   1_554  A
C1227      S1231   1.802       .  S
C1228      C1229   1.397       .  A
C1229      C1230   1.400       .  A
C1229      H1236   1.084       .  S
C1230      S1232   1.809       .  S
S1231      H1234   1.406       .  S
S1232      H1233   1.407       .  S
C1237      C1238   1.404       .  A
C1237      C1242   1.424       .  A
C1238      C1239   1.404       .  A
C1238      H1247   1.083       .  S
C1239      C1240   1.412       .  A
C1239      S1243   1.802   1_554  S
C1240      C1241   1.394       .  A
C1241      C1242   1.398       .  A
C1241      H1248   1.083       .  S
C1242      S1244   1.809       .  S
S1243      H1246   1.408       .  S
S1244      H1245   1.406       .  S
C1249      C1250   1.405   1_554  A
C1249      C1254   1.409       .  A
C1250      C1251   1.409       .  A
C1250      H1259   1.083       .  S
C1251      C1252   1.419       .  A
C1251      S1255   1.797       .  S
C1252      C1253   1.417   1_556  A
C1253      C1254   1.407       .  A
C1253      H1260   1.084       .  S
C1254      S1256   1.801       .  S
S1255      H1258   1.406       .  S
S1256      H1257   1.407       .  S
C1261      C1262   1.410       .  A
C1261      C1266   1.423       .  A
C1262      C1263   1.403       .  A
C1262      H1271   1.083       .  S
C1263      C1264   1.412       .  A
C1263      S1267   1.799       .  S
C1264      C1265   1.404       .  A
C1265      C1266   1.408       .  A
C1265      H1272   1.084   1_554  S
C1266      S1268   1.800       .  S
S1267      H1270   1.406       .  S
S1268      H1269   1.408       .  S
C1273      C1274   1.403       .  A
C1273      C1278   1.415       .  A
C1274      C1275   1.399       .  A
C1274      H1283   1.085       .  S
C1275      C1276   1.420       .  A
C1275      S1279   1.804       .  S
C1276      C1277   1.410       .  A
C1277      C1278   1.408       .  A
C1277      H1284   1.083       .  S
C1278      S1280   1.805       .  S
S1279      H1282   1.408       .  S
S1280      H1281   1.402       .  S
C1285      C1286   1.405       .  A
C1285      C1290   1.417       .  A
C1286      C1287   1.394       .  A
C1286      H1295   1.085       .  S
C1287      C1288   1.418       .  A
C1287      S1291   1.805       .  S
C1288      C1289   1.414       .  A
C1289      C1290   1.413       .  A
C1289      H1296   1.083       .  S
C1290      S1292   1.804       .  S
S1291      H1294   1.408       .  S
S1292      H1293   1.404       .  S
C1297      C1298   1.398       .  A
C1297      C1302   1.414       .  A
C1298      C1299   1.400       .  A
C1298      H1307   1.084       .  S
C1299      C1300   1.424       .  A
C1299      S1303   1.810       .  S
C1300      C1301   1.407       .  A
C1301      C1302   1.410       .  A
C1301      H1308   1.083       .  S
C1302      S1304   1.802       .  S
S1303      H1306   1.406       .  S
S1304      H1305   1.405       .  S
C1309      C1310   1.411       .  A
C1309      C1314   1.408       .  A
C1310      C1311   1.417       .  A
C1310      H1319   1.083       .  S
C1311      C1312   1.417       .  A
C1311      S1315   1.800       .  S
C1312      C1313   1.408       .  A
C1313      C1314   1.391       .  A
C1313      H1320   1.082       .  S
C1314      S1316   1.807       .  S
S1315      H1318   1.406       .  S
S1316      H1317   1.407       .  S
C1321      C1322   1.400       .  A
C1321      C1326   1.412       .  A
C1322      C1323   1.401       .  A
C1322      H1331   1.083       .  S
C1323      C1324   1.426       .  A
C1323      S1327   1.815       .  S
C1324      C1325   1.409       .  A
C1325      C1326   1.408       .  A
C1325      H1332   1.083       .  S
C1326      S1328   1.803       .  S
S1327      H1330   1.406       .  S
S1328      H1329   1.404       .  S
C1333      C1334   1.410       .  A
C1333      C1338   1.405       .  A
C1334      C1335   1.412       .  A
C1334      H1343   1.084       .  S
C1335      C1336   1.413       .  A
C1335      S1339   1.800       .  S
C1336      C1337   1.408       .  A
C1337      C1338   1.392       .  A
C1337      H1344   1.081       .  S
C1338      S1340   1.804       .  S
S1339      H1342   1.406       .  S
S1340      H1341   1.405       .  S
C1345      C1346   1.397       .  A
C1345      C1350   1.414       .  A
C1346      C1347   1.399   1_554  A
C1346      H1355   1.084   1_554  S
C1347      C1348   1.424   1_556  A
C1347      S1351   1.809       .  S
C1348      C1349   1.407       .  A
C1349      C1350   1.410       .  A
C1349      H1356   1.083       .  S
C1350      S1352   1.802       .  S
S1351      H1354   1.407       .  S
S1352      H1353   1.406       .  S
C1357      C1358   1.411       .  A
C1357      C1362   1.423       .  A
C1358      C1359   1.410       .  A
C1358      H1367   1.083       .  S
C1359      C1360   1.414       .  A
C1359      S1363   1.804       .  S
C1360      C1361   1.398       .  A
C1361      C1362   1.394       .  A
C1361      H1368   1.085       .  S
C1362      S1364   1.804       .  S
S1363      H1366   1.404       .  S
S1364      H1365   1.408       .  S
C1369      C1370   1.408       .  A
C1369      C1374   1.409       .  A
C1370      C1371   1.413       .  A
C1370      H1379   1.084       .  S
C1371      C1372   1.419       .  A
C1371      S1375   1.800       .  S
C1372      C1373   1.408       .  A
C1373      C1374   1.397       .  A
C1373      H1380   1.080       .  S
C1374      S1376   1.804       .  S
S1375      H1378   1.407       .  S
S1376      H1377   1.406       .  S
C1381      C1382   1.411       .  A
C1381      C1386   1.407       .  A
C1382      C1383   1.411       .  A
C1382      H1391   1.084       .  S
C1383      C1384   1.412       .  A
C1383      S1387   1.802       .  S
C1384      C1385   1.407       .  A
C1385      C1386   1.393       .  A
C1385      H1392   1.084       .  S
C1386      S1388   1.804       .  S
S1387      H1390   1.405       .  S
S1388      H1389   1.402       .  S
C1393      C1394   1.403       .  A
C1393      C1398   1.423       .  A
C1394      C1395   1.410       .  A
C1394      H1403   1.081       .  S
C1395      C1396   1.422       .  A
C1395      S1399   1.799       .  S
C1396      C1397   1.400       .  A
C1397      C1398   1.404       .  A
C1397      H1404   1.084       .  S
C1398      S1400   1.802       .  S
S1399      H1402   1.407       .  S
S1400      H1401   1.403       .  S
C1405      C1406   1.402       .  A
C1405      C1410   1.410       .  A
C1406      C1407   1.401       .  A
C1406      H1415   1.081       .  S
C1407      C1408   1.419       .  A
C1407      S1411   1.803       .  S
C1408      C1409   1.411       .  A
C1409      C1410   1.411       .  A
C1409      H1416   1.082       .  S
C1410      S1412   1.804       .  S
S1411      H1414   1.408       .  S
S1412      H1413   1.406       .  S
C1417      C1418   1.408       .  A
C1417      C1422   1.420   1_565  A
C1418      C1419   1.395       .  A
C1418      H1427   1.081       .  S
C1419      C1420   1.409       .  A
C1419      S1423   1.805       .  S
C1420      C1421   1.406   1_565  A
C1421      C1422   1.412       .  A
C1421      H1428   1.084       .  S
C1422      S1424   1.800       .  S
S1423      H1426   1.408       .  S
S1424      H1425   1.407       .  S
C1429      C1430   1.409       .  A
C1429      C1434   1.426       .  A
C1430      C1431   1.400       .  A
C1430      H1439   1.083       .  S
C1431      C1432   1.415       .  A
C1431      S1435   1.806       .  S
C1432      C1433   1.403       .  A
C1433      C1434   1.412       .  A
C1433      H1440   1.083       .  S
C1434      S1436   1.798       .  S
S1435      H1438   1.407       .  S
S1436      H1437   1.407       .  S
C1441      C1442   1.408   1_565  A
C1441      C1446   1.427       .  A
C1442      C1443   1.404       .  A
C1442      H1451   1.083       .  S
C1443      C1444   1.410       .  A
C1443      S1447   1.802       .  S
C1444      C1445   1.398   1_545  A
C1445      C1446   1.399       .  A
C1445      H1452   1.083       .  S
C1446      S1448   1.814       .  S
S1447      H1450   1.406       .  S
S1448      H1449   1.406       .  S
C1453      C1454   1.409       .  A
C1453      C1458   1.404       .  A
C1454      C1455   1.408       .  A
C1454      H1463   1.084       .  S
C1455      C1456   1.411       .  A
C1455      S1459   1.800       .  S
C1456      C1457   1.408       .  A
C1457      C1458   1.389       .  A
C1457      H1464   1.083       .  S
C1458      S1460   1.803       .  S
S1459      H1462   1.406       .  S
S1460      H1461   1.405       .  S
C1465      C1466   1.397       .  A
C1465      C1470   1.414       .  A
C1466      C1467   1.396       .  A
C1466      H1475   1.083       .  S
C1467      C1468   1.427       .  A
C1467      S1471   1.816       .  S
C1468      C1469   1.410       .  A
C1469      C1470   1.410       .  A
C1469      H1476   1.083       .  S
C1470      S1472   1.806       .  S
S1471      H1474   1.406       .  S
S1472      H1473   1.403       .  S
C1477      C1478   1.397       .  A
C1477      C1482   1.411       .  A
C1478      C1479   1.393       .  A
C1478      H1487   1.085       .  S
C1479      C1480   1.421       .  A
C1479      S1483   1.801       .  S
C1480      C1481   1.407       .  A
C1481      C1482   1.404       .  A
C1481      H1488   1.084       .  S
C1482      S1484   1.803       .  S
S1483      H1486   1.408       .  S
S1484      H1485   1.405       .  S
C1489      C1490   1.415       .  A
C1489      C1494   1.418       .  A
C1490      C1491   1.405       .  A
C1490      H1499   1.083       .  S
C1491      C1492   1.409       .  A
C1491      S1495   1.802       .  S
C1492      C1493   1.405       .  A
C1493      C1494   1.405       .  A
C1493      H1500   1.084       .  S
C1494      S1496   1.792       .  S
S1495      H1498   1.407       .  S
S1496      H1497   1.398       .  S
C1501      C1502   1.405       .  A
C1501      C1506   1.412       .  A
C1502      C1503   1.412       .  A
C1502      H1511   1.084       .  S
C1503      C1504   1.422       .  A
C1503      S1507   1.800       .  S
C1504      C1505   1.409       .  A
C1505      C1506   1.400       .  A
C1505      H1512   1.083       .  S
C1506      S1508   1.801       .  S
S1507      H1510   1.408       .  S
S1508      H1509   1.405       .  S
C1513      C1514   1.412       .  A
C1513      C1518   1.405       .  A
C1514      C1515   1.411       .  A
C1514      H1523   1.084       .  S
C1515      C1516   1.413       .  A
C1515      S1519   1.801       .  S
C1516      C1517   1.408       .  A
C1517      C1518   1.391       .  A
C1517      H1524   1.082       .  S
C1518      S1520   1.801       .  S
S1519      H1522   1.406       .  S
S1520      H1521   1.404   1_554  S
C1525      C1526   1.404       .  A
C1525      C1530   1.410       .  A
C1526      C1527   1.391       .  A
C1526      H1535   1.083       .  S
C1527      C1528   1.407       .  A
C1527      S1531   1.804       .  S
C1528      C1529   1.410       .  A
C1529      C1530   1.409       .  A
C1529      H1536   1.084       .  S
C1530      S1532   1.802       .  S
S1531      H1534   1.400       .  S
S1532      H1533   1.405       .  S
C1537      C1538   1.401       .  A
C1537      C1542   1.415       .  A
C1538      C1539   1.400       .  A
C1538      H1547   1.084       .  S
C1539      C1540   1.424       .  A
C1539      S1543   1.805       .  S
C1540      C1541   1.410       .  A
C1541      C1542   1.410       .  A
C1541      H1548   1.073       .  S
C1542      S1544   1.797       .  S
S1543      H1546   1.408       .  S
S1544      H1545   1.407       .  S
C1549      C1550   1.405       .  A
C1549      C1554   1.413       .  A
C1550      C1551   1.414       .  A
C1550      H1559   1.083       .  S
C1551      C1552   1.422       .  A
C1551      S1555   1.807       .  S
C1552      C1553   1.406       .  A
C1553      C1554   1.399       .  A
C1553      H1560   1.083       .  S
C1554      S1556   1.793       .  S
S1555      H1558   1.407       .  S
S1556      H1557   1.399       .  S
C1561      C1562   1.399       .  A
C1561      C1566   1.410       .  A
C1562      C1563   1.403       .  A
C1562      H1571   1.084       .  S
C1563      C1564   1.426       .  A
C1563      S1567   1.813       .  S
C1564      C1565   1.410       .  A
C1565      C1566   1.405       .  A
C1565      H1572   1.083       .  S
C1566      S1568   1.804       .  S
S1567      H1570   1.406       .  S
S1568      H1569   1.404       .  S
C1573      C1574   1.397       .  A
C1573      C1578   1.413       .  A
C1574      C1575   1.402       .  A
C1574      H1583   1.084       .  S
C1575      C1576   1.421       .  A
C1575      S1579   1.806       .  S
C1576      C1577   1.404       .  A
C1577      C1578   1.404       .  A
C1577      H1584   1.084       .  S
C1578      S1580   1.802       .  S
S1579      H1582   1.408       .  S
S1580      H1581   1.407       .  S
C1585      C1586   1.406       .  A
C1585      C1590   1.417       .  A
C1586      C1587   1.407       .  A
C1586      H1595   1.078       .  S
C1587      C1588   1.412       .  A
C1587      S1591   1.801       .  S
C1588      C1589   1.401       .  A
C1589      C1590   1.400       .  A
C1589      H1596   1.084       .  S
C1590      S1592   1.798       .  S
S1591      H1594   1.407       .  S
S1592      H1593   1.407       .  S
C1597      C1598   1.408       .  A
C1597      C1602   1.412       .  A
C1598      C1599   1.400       .  A
C1598      H1607   1.080       .  S
C1599      C1600   1.413       .  A
C1599      S1603   1.803       .  S
C1600      C1601   1.409       .  A
C1601      C1602   1.404       .  A
C1601      H1608   1.083       .  S
C1602      S1604   1.795       .  S
S1603      H1606   1.407       .  S
S1604      H1605   1.404       .  S
C1609      C1610   1.404       .  A
C1609      C1614   1.412       .  A
C1610      C1611   1.411       .  A
C1610      H1619   1.084       .  S
C1611      C1612   1.424       .  A
C1611      S1615   1.798       .  S
C1612      C1613   1.408       .  A
C1613      C1614   1.393       .  A
C1613      H1620   1.083   1_545  S
C1614      S1616   1.807       .  S
S1615      H1618   1.408   1_545  S
S1616      H1617   1.406       .  S
C1621      C1622   1.410       .  A
C1621      C1626   1.406       .  A
C1622      C1623   1.413       .  A
C1622      H1631   1.084       .  S
C1623      C1624   1.414       .  A
C1623      S1627   1.800       .  S
C1624      C1625   1.408       .  A
C1625      C1626   1.391       .  A
C1625      H1632   1.083       .  S
C1626      S1628   1.802       .  S
S1627      H1630   1.406       .  S
S1628      H1629   1.406       .  S
C1633      C1634   1.396       .  A
C1633      C1638   1.418       .  A
C1634      C1635   1.404       .  A
C1634      H1643   1.083       .  S
C1635      C1636   1.426       .  A
C1635      S1639   1.805       .  S
C1636      C1637   1.406       .  A
C1637      C1638   1.411       .  A
C1637      H1644   1.081   1_545  S
C1638      S1640   1.798   1_545  S
S1639      H1642   1.407       .  S
S1640      H1641   1.406       .  S
C1645      C1646   1.408       .  A
C1645      C1650   1.419       .  A
C1646      C1647   1.400       .  A
C1646      H1655   1.081       .  S
C1647      C1648   1.411       .  A
C1647      S1651   1.803       .  S
C1648      C1649   1.408       .  A
C1649      C1650   1.413       .  A
C1649      H1656   1.084       .  S
C1650      S1652   1.800       .  S
S1651      H1654   1.406       .  S
S1652      H1653   1.408       .  S
C1657      C1658   1.409       .  A
C1657      C1662   1.408       .  A
C1658      C1659   1.413       .  A
C1658      H1667   1.084       .  S
C1659      C1660   1.415       .  A
C1659      S1663   1.800       .  S
C1660      C1661   1.409       .  A
C1661      C1662   1.396       .  A
C1661      H1668   1.084       .  S
C1662      S1664   1.803       .  S
S1663      H1666   1.407       .  S
S1664      H1665   1.406       .  S
C1669      C1670   1.400       .  A
C1669      C1674   1.415       .  A
C1670      C1671   1.400       .  A
C1670      H1679   1.085       .  S
C1671      C1672   1.423       .  A
C1671      S1675   1.800       .  S
C1672      C1673   1.408       .  A
C1673      C1674   1.409       .  A
C1673      H1680   1.083       .  S
C1674      S1676   1.802       .  S
S1675      H1678   1.408       .  S
S1676      H1677   1.406       .  S
C1681      C1682   1.406       .  A
C1681      C1686   1.407       .  A
C1682      C1683   1.408       .  A
C1682      H1691   1.084       .  S
C1683      C1684   1.416       .  A
C1683      S1687   1.800       .  S
C1684      C1685   1.410       .  A
C1685      C1686   1.394       .  A
C1685      H1692   1.084       .  S
C1686      S1688   1.803       .  S
S1687      H1690   1.407       .  S
S1688      H1689   1.406       .  S
C1693      C1694   1.406       .  A
C1693      C1698   1.414       .  A
C1694      C1695   1.398       .  A
C1694      H1703   1.085       .  S
C1695      C1696   1.418       .  A
C1695      S1699   1.805       .  S
C1696      C1697   1.411       .  A
C1697      C1698   1.408       .  A
C1697      H1704   1.083       .  S
C1698      S1700   1.806       .  S
S1699      H1702   1.408       .  S
S1700      H1701   1.402       .  S
C1705      C1706   1.406       .  A
C1705      C1710   1.413       .  A
C1706      C1707   1.396       .  A
C1706      H1715   1.083       .  S
C1707      C1708   1.414       .  A
C1707      S1711   1.814   1_545  S
C1708      C1709   1.413       .  A
C1709      C1710   1.408       .  A
C1709      H1716   1.083       .  S
C1710      S1712   1.806       .  S
S1711      H1714   1.406   1_565  S
S1712      H1713   1.403       .  S
C1717      C1718   1.400       .  A
C1717      C1722   1.417       .  A
C1718      C1719   1.390       .  A
C1718      H1727   1.085       .  S
C1719      C1720   1.421       .  A
C1719      S1723   1.807       .  S
C1720      C1721   1.412       .  A
C1721      C1722   1.413       .  A
C1721      H1728   1.083       .  S
C1722      S1724   1.806       .  S
S1723      H1726   1.408       .  S
S1724      H1725   1.402       .  S
C1729      C1730   1.397       .  A
C1729      C1734   1.416       .  A
C1730      C1731   1.400       .  A
C1730      H1739   1.084       .  S
C1731      C1732   1.429       .  A
C1731      S1735   1.815       .  S
C1732      C1733   1.411       .  A
C1733      C1734   1.415       .  A
C1733      H1740   1.083       .  S
C1734      S1736   1.804       .  S
S1735      H1738   1.406       .  S
S1736      H1737   1.404       .  S
C1741      C1742   1.411       .  A
C1741      C1746   1.409       .  A
C1742      C1743   1.420       .  A
C1742      H1751   1.082       .  S
C1743      C1744   1.414       .  A
C1743      S1747   1.802       .  S
C1744      C1745   1.406       .  A
C1745      C1746   1.389       .  A
C1745      H1752   1.082       .  S
C1746      S1748   1.807       .  S
S1747      H1750   1.407       .  S
S1748      H1749   1.407       .  S
C1753      C1754   1.412       .  A
C1753      C1758   1.404       .  A
C1754      C1755   1.418       .  A
C1754      H1763   1.083       .  S
C1755      C1756   1.416       .  A
C1755      S1759   1.801       .  S
C1756      C1757   1.408       .  A
C1757      C1758   1.387       .  A
C1757      H1764   1.081       .  S
C1758      S1760   1.806       .  S
S1759      H1762   1.404       .  S
S1760      H1761   1.408       .  S
C1765      C1766   1.399       .  A
C1765      C1770   1.408       .  A
C1766      C1767   1.399       .  A
C1766      H1775   1.084       .  S
C1767      C1768   1.424       .  A
C1767      S1771   1.812       .  S
C1768      C1769   1.412       .  A
C1769      C1770   1.404       .  A
C1769      H1776   1.083       .  S
C1770      S1772   1.803       .  S
S1771      H1774   1.407       .  S
S1772      H1773   1.406       .  S
C1777      C1778   1.407       .  A
C1777      C1782   1.405       .  A
C1778      C1779   1.409       .  A
C1778      H1787   1.084       .  S
C1779      C1780   1.419       .  A
C1779      S1783   1.800       .  S
C1780      C1781   1.407       .  A
C1781      C1782   1.393       .  A
C1781      H1788   1.078       .  S
C1782      S1784   1.804       .  S
S1783      H1786   1.407       .  S
S1784      H1785   1.405       .  S
C1789      C1790   1.412       .  A
C1789      C1794   1.408       .  A
C1790      C1791   1.414       .  A
C1790      H1799   1.084       .  S
C1791      C1792   1.415       .  A
C1791      S1795   1.800       .  S
C1792      C1793   1.410       .  A
C1793      C1794   1.398       .  A
C1793      H1800   1.082       .  S
C1794      S1796   1.802       .  S
S1795      H1798   1.407       .  S
S1796      H1797   1.404       .  S
C1801      C1802   1.408       .  A
C1801      C1806   1.410       .  A
C1802      C1803   1.406       .  A
C1802      H1811   1.084       .  S
C1803      C1804   1.412       .  A
C1803      S1807   1.801       .  S
C1804      C1805   1.407       .  A
C1805      C1806   1.396       .  A
C1805      H1812   1.085   1_455  S
C1806      S1808   1.803       .  S
S1807      H1810   1.407       .  S
S1808      H1809   1.400       .  S
C1813      C1814   1.408       .  A
C1813      C1818   1.423       .  A
C1814      C1815   1.396       .  A
C1814      H1823   1.083       .  S
C1815      C1816   1.414       .  A
C1815      S1819   1.808       .  S
C1816      C1817   1.403       .  A
C1817      C1818   1.410       .  A
C1817      H1824   1.083       .  S
C1818      S1820   1.799       .  S
S1819      H1822   1.407       .  S
S1820      H1821   1.408       .  S
C1825      C1826   1.412       .  A
C1825      C1830   1.404       .  A
C1826      C1827   1.413       .  A
C1826      H1835   1.084       .  S
C1827      C1828   1.413       .  A
C1827      S1831   1.801       .  S
C1828      C1829   1.408       .  A
C1829      C1830   1.391       .  A
C1829      H1836   1.083       .  S
C1830      S1832   1.799       .  S
S1831      H1834   1.406       .  S
S1832      H1833   1.404       .  S
C1837      C1838   1.408       .  A
C1837      C1842   1.415       .  A
C1838      C1839   1.394       .  A
C1838      H1847   1.083       .  S
C1839      C1840   1.406       .  A
C1839      S1843   1.801       .  S
C1840      C1841   1.410       .  A
C1841      C1842   1.414       .  A
C1841      H1848   1.084       .  S
C1842      S1844   1.800       .  S
S1843      H1846   1.406       .  S
S1844      H1845   1.406       .  S
C1849      C1850   1.403       .  A
C1849      C1854   1.413       .  A
C1850      C1851   1.398       .  A
C1850      H1859   1.085       .  S
C1851      C1852   1.420       .  A
C1851      S1855   1.803       .  S
C1852      C1853   1.412       .  A
C1853      C1854   1.409       .  A
C1853      H1860   1.083       .  S
C1854      S1856   1.806       .  S
S1855      H1858   1.408       .  S
S1856      H1857   1.403       .  S
C1861      C1862   1.412       .  A
C1861      C1866   1.415       .  A
C1862      C1863   1.403       .  A
C1862      H1871   1.084       .  S
C1863      C1864   1.409       .  A
C1863      S1867   1.802       .  S
C1864      C1865   1.403       .  A
C1865      C1866   1.404       .  A
C1865      H1872   1.082       .  S
C1866      S1868   1.797       .  S
S1867      H1870   1.407       .  S
S1868      H1869   1.406       .  S
C1873      C1874   1.405       .  A
C1873      C1878   1.412       .  A
C1874      C1875   1.412       .  A
C1874      H1883   1.084       .  S
C1875      C1876   1.423       .  A
C1875      S1879   1.800       .  S
C1876      C1877   1.408       .  A
C1877      C1878   1.393       .  A
C1877      H1884   1.083       .  S
C1878      S1880   1.808       .  S
S1879      H1882   1.407       .  S
S1880      H1881   1.407       .  S
C1885      C1886   1.408       .  A
C1885      C1890   1.410       .  A
C1886      C1887   1.412       .  A
C1886      H1895   1.084       .  S
C1887      C1888   1.420       .  A
C1887      S1891   1.800       .  S
C1888      C1889   1.410       .  A
C1889      C1890   1.399       .  A
C1889      H1896   1.083       .  S
C1890      S1892   1.804       .  S
S1891      H1894   1.408       .  S
S1892      H1893   1.406       .  S
C1897      C1898   1.408       .  A
C1897      C1902   1.406   1_545  A
C1898      C1899   1.412       .  A
C1898      H1907   1.084       .  S
C1899      C1900   1.415   1_545  A
C1899      S1903   1.800       .  S
C1900      C1901   1.408       .  A
C1901      C1902   1.390       .  A
C1901      H1908   1.084       .  S
C1902      S1904   1.802       .  S
S1903      H1906   1.407       .  S
S1904      H1905   1.407       .  S
C1909      C1910   1.411       .  A
C1909      C1914   1.415       .  A
C1910      C1911   1.407       .  A
C1910      H1919   1.083       .  S
C1911      C1912   1.412       .  A
C1911      S1915   1.806       .  S
C1912      C1913   1.407       .  A
C1913      C1914   1.399       .  A
C1913      H1920   1.084       .  S
C1914      S1916   1.811       .  S
S1915      H1918   1.403   1_545  S
S1916      H1917   1.406       .  S
C1921      C1922   1.410   1_565  A
C1921      C1926   1.427       .  A
C1922      C1923   1.408       .  A
C1922      H1931   1.083       .  S
C1923      C1924   1.412       .  A
C1923      S1927   1.804       .  S
C1924      C1925   1.398       .  A
C1925      C1926   1.402   1_545  A
C1925      H1932   1.083   1_545  S
C1926      S1928   1.814       .  S
S1927      H1930   1.404       .  S
S1928      H1929   1.406       .  S
C1933      C1934   1.413       .  A
C1933      C1938   1.405       .  A
C1934      C1935   1.415       .  A
C1934      H1943   1.084       .  S
C1935      C1936   1.412       .  A
C1935      S1939   1.801       .  S
C1936      C1937   1.408       .  A
C1937      C1938   1.393       .  A
C1937      H1944   1.082       .  S
C1938      S1940   1.804       .  S
S1939      H1942   1.405       .  S
S1940      H1941   1.404       .  S
C1945      C1946   1.405       .  A
C1945      C1950   1.424       .  A
C1946      C1947   1.406       .  A
C1946      H1955   1.079       .  S
C1947      C1948   1.415       .  A
C1947      S1951   1.799       .  S
C1948      C1949   1.398       .  A
C1949      C1950   1.405       .  A
C1949      H1956   1.083       .  S
C1950      S1952   1.808       .  S
S1951      H1954   1.406       .  S
S1952      H1953   1.407       .  S
C1957      C1958   1.403       .  A
C1957      C1962   1.413       .  A
C1958      C1959   1.415       .  A
C1958      H1967   1.082       .  S
C1959      C1960   1.424       .  A
C1959      S1963   1.806       .  S
C1960      C1961   1.407       .  A
C1961      C1962   1.391       .  A
C1961      H1968   1.083       .  S
C1962      S1964   1.804       .  S
S1963      H1966   1.407       .  S
S1964      H1965   1.404       .  S
C1969      C1970   1.410       .  A
C1969      C1974   1.408       .  A
C1970      C1971   1.410       .  A
C1970      H1979   1.084       .  S
C1971      C1972   1.414       .  A
C1971      S1975   1.800       .  S
C1972      C1973   1.409       .  A
C1973      C1974   1.398       .  A
C1973      H1980   1.080       .  S
C1974      S1976   1.800       .  S
S1975      H1978   1.407       .  S
S1976      H1977   1.404       .  S
C1981      C1982   1.410       .  A
C1981      C1986   1.409       .  A
C1982      C1983   1.409       .  A
C1982      H1991   1.084       .  S
C1983      C1984   1.412       .  A
C1983      S1987   1.802       .  S
C1984      C1985   1.408       .  A
C1985      C1986   1.398       .  A
C1985      H1992   1.084       .  S
C1986      S1988   1.802       .  S
S1987      H1990   1.407       .  S
S1988      H1989   1.402       .  S
