geometry optimzed in LAMMPS
_audit_creation_date              2020-11-30 
_audit_creation_method            'lammps2cif' 
_symmetry_space_group_name_H-M    'P1' 
_symmetry_Int_Tables_number       1 
_symmetry_cell_setting            triclinic 
loop_ 
_symmetry_equiv_pos_as_xyz 
  x,y,z 
_cell_length_a                    48.40336729 
_cell_length_b                    25.21264843226671 
_cell_length_c                    37.20752542735939 
_cell_angle_alpha                 90.38803500895374 
_cell_angle_beta                  90.36912618950473 
_cell_angle_gamma                 90.14039584671427 
loop_ 
_atom_site_label 
_atom_site_type_symbol 
_atom_site_fract_x 
_atom_site_fract_y 
_atom_site_fract_z 
_atom_site_charge 
C1          C  0.36232917  0.76211681  0.00284479     0.03700
C2          C  0.35986609  0.72872781  0.47595470    -0.12500
C3          C  0.34160280  0.68606729  0.47114322     0.01200
C4          C  0.33266217  0.65768662  0.50120707    -0.11000
C5          C  0.33559458  0.69258218  0.03163064     0.03700
C6          C  0.35484099  0.73382687  0.03370465    -0.10400
H7          H  0.36487301  0.75315889  0.45305210     0.09300
H8          H  0.31727310  0.62667049  0.49786442     0.06800
H9          H  0.36303481  0.74493615  0.05971978     0.06700
C10         C  0.11593756  0.84992565  0.99944344     0.03700
C11         C  0.12111338  0.82922807  0.46870816    -0.12500
C12         C  0.14190524  0.79138486  0.46565825     0.01200
C13         C  0.15374567  0.76967268  0.49659351    -0.11000
C14         C  0.14595538  0.78564234  0.02873541     0.03700
C15         C  0.12526005  0.82416109  0.03061208    -0.10400
H16         H  0.11227069  0.84633998  0.44462983     0.09300
H17         H  0.16961702  0.73961795  0.49403435     0.06800
H18         H  0.11563515  0.83275670  0.05617330     0.06700
C19         C  0.30613229  0.26987181  0.00046329     0.03700
C20         C  0.29522233  0.28871776  0.47094735    -0.12500
C21         C  0.27298174  0.32452231  0.47221592     0.01200
C22         C  0.26059454  0.33501566  0.50561240    -0.11000
C23         C  0.27473210  0.32207628  0.03784063     0.03700
C24         C  0.29594522  0.28474642  0.03456266    -0.10400
H25         H  0.30643952  0.28387870  0.44612242     0.09300
H26         H  0.24425969  0.36417344  0.50769791     0.06800
H27         H  0.30515820  0.26942032  0.05881579     0.06700
N28         N  0.47395382  0.98969214  0.00431470    -0.36000
N29         N  0.00513892  0.08321576  0.01448523    -0.56600
N30         N  0.45476797  0.14361752  0.98845741    -0.36000
N31         N  0.42247681  0.04972555  0.99762248    -0.56600
C32         C  0.49929985  0.97048908  0.01266898     0.27500
C33         C  0.45537509  0.95297299  0.01474037     0.27500
C34         C  0.47324133  0.18120178  0.97936018     0.27500
C35         C  0.42944319  0.16307806  0.98053150     0.27500
C36         C  0.02674559  0.04939890  0.01425729     0.36200
C37         C  0.01564171  0.13215401  0.00939853     0.36200
C38         C  0.41130891  0.00176793  0.00360356     0.36200
C39         C  0.40132245  0.08431857  0.99636539     0.36200
C40         C  0.49668982  0.92141787  0.02887334    -0.21300
C41         C  0.46895753  0.91030692  0.03012200    -0.21300
C42         C  0.45957714  0.22482344  0.96531547    -0.21300
C43         C  0.43190506  0.21330543  0.96598734    -0.21300
C44         C  0.05111116  0.07694031  0.00894465    -0.22400
C45         C  0.04422149  0.12947690  0.00709123    -0.22400
C46         C  0.38274861  0.00578036  0.00573332    -0.22400
C47         C  0.37652270  0.05841786  0.00223076    -0.22400
C48         C  0.02471052  0.99422585  0.01970205    -0.17700
C49         C  0.42657007  0.95495885  0.00899856    -0.17700
C50         C  0.40401034  0.13841878  0.98813599    -0.17700
C51         C  0.99992531  0.17871083  0.00402217    -0.17700
H52         H  0.01405083  0.89370268  0.05143791     0.15200
H53         H  0.45979131  0.87459830  0.04085094     0.15200
H54         H  0.46862910  0.26139730  0.95581295     0.15200
H55         H  0.41543086  0.23923332  0.95720404     0.15200
H56         H  0.07175431  0.06116920  0.00652202     0.13500
H57         H  0.05871084  0.16153110  0.00296337     0.13500
H58         H  0.36782343  0.97461714  0.01026170     0.13500
H59         H  0.35600478  0.07531901  0.00300943     0.13500
H60         H  0.46968249  0.02197752  0.98802520     0.26700
H61         H  0.45911302  0.11023617  0.00359404     0.26700
C62         C  0.06881558  0.36691933  0.99979593     0.03700
C63         C  0.07988868  0.38584535  0.03280549    -0.12500
C64         C  0.09942368  0.42710227  0.03350205     0.01200
C65         C  0.10621213  0.45002400  0.49727937    -0.11000
C66         C  0.09699636  0.43259680  0.46368958     0.03700
C67         C  0.07569556  0.39510165  0.46131632    -0.10400
H68         H  0.07467985  0.36679367  0.05784894     0.09300
H69         H  0.12238332  0.47982360  0.49897645     0.06800
H70         H  0.06737456  0.38586230  0.43509274     0.06700
O71         O  0.28565583  0.64265316  0.31368017    -0.74700
O72         O  0.25267100  0.61674356  0.35337771    -0.53600
C73         C  0.27589477  0.63834483  0.34568749     0.79000
O74         O  0.18219333  0.68918941  0.18351143    -0.59300
O75         O  0.19914612  0.62565747  0.14583057    -0.52400
C76         C  0.18597782  0.66884249  0.15197801     0.71000
O77         O  0.18130766  0.70685942  0.30594841    -0.73900
O78         O  0.19469133  0.64772855  0.34883356    -0.54400
C79         C  0.18327340  0.69110196  0.33879284     0.77000
O80         O  0.29132659  0.62899286  0.19251784    -0.59000
O81         O  0.25951530  0.59577532  0.15292244    -0.52100
C82         C  0.28253694  0.61870872  0.16045799     0.73600
Zr83       Zr  0.27098990  0.61944084  0.25246733     2.54700
O84         O  0.28342478  0.71273887  0.24783738    -0.79600
O85         O  0.31916978  0.59201992  0.25598331    -0.93000
Zr86       Zr  0.19220240  0.66838542  0.24662577     2.64700
O87         O  0.20708725  0.76033975  0.24184188    -0.98000
O88         O  0.14378067  0.69394161  0.24475428    -0.80000
O89         O  0.23088882  0.64822193  0.28375055    -0.83400
O90         O  0.23273600  0.64235597  0.21530573    -2.18100
O91         O  0.25338547  0.42795270  0.19830571    -0.66800
O92         O  0.24046314  0.48727979  0.15537465    -0.51300
C93         C  0.25051775  0.44279428  0.16541877     0.72000
O94         O  0.14762586  0.50304414  0.30961816    -0.59700
O95         O  0.17834766  0.53658115  0.35071263    -0.51700
C96         C  0.15583127  0.51256476  0.34192685     0.73800
O97         O  0.15262801  0.49463908  0.18827280    -0.71100
O98         O  0.18612074  0.51904539  0.14893494    -0.49800
C99         C  0.16286488  0.49765746  0.15643111     0.75200
O100        O  0.24880223  0.44238797  0.32043271    -0.66400
O101        O  0.23346062  0.50679830  0.35835633    -0.53600
C102        C  0.24393279  0.46099956  0.35215044     0.73600
Zr103      Zr  0.24489502  0.46853400  0.25729792     2.77500
O104        O  0.23032336  0.37614119  0.26021466    -0.97200
O105        O  0.29322936  0.44258297  0.26124087    -0.78000
Zr106      Zr  0.16631567  0.51789434  0.24997799     2.70100
O107        O  0.14949920  0.42685304  0.25183006    -0.79200
O108        O  0.11967990  0.55390976  0.24727244    -0.98300
Zr109      Zr  0.21663247  0.57465349  0.31867616     2.21500
Zr110      Zr  0.22062977  0.56215000  0.18514154     2.11100
O111        O  0.20652110  0.48869106  0.22005339    -2.47000
O112        O  0.20431410  0.49536897  0.28770106    -0.79000
O113        O  0.25967175  0.54007889  0.22075948    -0.71200
O114        O  0.17773571  0.59628091  0.28252456    -2.32200
O115        O  0.25768391  0.54678994  0.28912071    -2.28400
O116        O  0.17974417  0.59050589  0.21408725    -0.73000
H117        H  0.23791512  0.66958459  0.19847277     0.79000
H118        H  0.16213924  0.60668396  0.29705113     0.80100
H119        H  0.20201385  0.45794761  0.20507675     0.82300
H120        H  0.27223827  0.53882854  0.30631092     0.79900
H121        H  0.13384152  0.66091015  0.23808418     0.43000
H122        H  0.11323398  0.54709819  0.22236788     0.42000
H123        H  0.16004700  0.40791738  0.23300337     0.41600
H124        H  0.24573814  0.35773127  0.27248057     0.39600
H125        H  0.30342799  0.47222069  0.25005295     0.42700
H126        H  0.32157665  0.57778226  0.28053257     0.37500
H127        H  0.27442191  0.72993275  0.26868440     0.43600
H128        H  0.19039777  0.78126993  0.24767794     0.40000
H129        H  0.21508496  0.37593385  0.27784479     0.44900
H130        H  0.32978688  0.62564845  0.25611676     0.43700
H131        H  0.21957844  0.76594154  0.26271100     0.43800
H132        H  0.10843277  0.52975636  0.26213410     0.44100
C133        C  0.11766028  0.47930983  0.12711732    -0.11700
C134        C  0.14657735  0.47583157  0.12615789     0.05300
C135        C  0.15932387  0.45368807  0.09548983    -0.07000
C136        C  0.14316576  0.43636131  0.06667803    -0.07700
C137        C  0.11439440  0.44174650  0.06688716    -0.02300
C138        C  0.10147792  0.46299487  0.09769920     0.04500
N139        N  0.07232893  0.47119824  0.09904819     0.67000
H140        H  0.10757557  0.49679509  0.15025723     0.16900
H141        H  0.15333263  0.41918725  0.04348289     0.15700
N142        N  0.18857230  0.44719456  0.09314323     0.74700
O143        O  0.05773332  0.43872686  0.11630859    -0.38700
O144        O  0.06311133  0.51728951  0.09374596    -0.38600
O145        O  0.19850187  0.40148839  0.09751218    -0.39400
O146        O  0.20241480  0.48087754  0.07589004    -0.39400
C147        C  0.15380053  0.46249141  0.39773364    -0.11700
C148        C  0.13952693  0.49129894  0.37160411     0.05300
C149        C  0.11071776  0.49830290  0.37469870    -0.07000
C150        C  0.09695309  0.47796438  0.40462339    -0.07700
C151        C  0.11149981  0.45047950  0.43126625    -0.02300
C152        C  0.14011552  0.44164212  0.42719323     0.04500
N153        N  0.15551118  0.41010986  0.45199583     0.67000
H154        H  0.17580568  0.45550217  0.39503231     0.15900
H155        H  0.07498637  0.48484599  0.40755876     0.15700
N156        N  0.09538271  0.52816112  0.34896451     0.74700
O157        O  0.15921701  0.36169004  0.44473953    -0.38700
O158        O  0.17184461  0.43292298  0.47371680    -0.38600
O159        O  0.07936563  0.50392919  0.32755323    -0.39400
O160        O  0.09172275  0.57704683  0.35458151    -0.39400
C161        C  0.03182760  0.23848511  0.46126357    -0.11700
C162        C  0.01507205  0.22955746  0.00143074     0.05300
C163        C  0.01494919  0.26622636  0.02992801    -0.07000
C164        C  0.03131126  0.31203458  0.02804921    -0.07700
C165        C  0.04933008  0.32043633  0.99884562    -0.02300
C166        C  0.04781281  0.28457568  0.46015214     0.04500
N167        N  0.06500391  0.29104038  0.42945702     0.67000
H168        H  0.03199533  0.21120669  0.43861174     0.15900
H169        H  0.03040850  0.34017449  0.05010512     0.15700
N170        N  0.50035067  0.24631907  0.04698202     0.74700
O171        O  0.08813006  0.26808434  0.42899481    -0.38700
O172        O  0.05383056  0.30347247  0.39994389    -0.38600
O173        O  0.51121179  0.21246712  0.06749801    -0.39400
O174        O  0.46734545  0.27059858  0.54754243    -0.39400
C175        C  0.37683691  0.20739487  0.01863338    -0.11700
C176        C  0.37913217  0.17224538  0.98980753     0.05300
C177        C  0.35532002  0.15970451  0.46597375    -0.07000
C178        C  0.33227083  0.19304741  0.46932970    -0.07700
C179        C  0.33174829  0.23678534  0.99697820    -0.02300
C180        C  0.35416662  0.24099637  0.02178533     0.04500
N181        N  0.35590090  0.28205302  0.04837360     0.67000
H182        H  0.39347617  0.21028565  0.03821712     0.15900
H183        H  0.31750954  0.19431817  0.44736246     0.15700
N184        N  0.35995559  0.13104940  0.43326193     0.74700
O185        O  0.35338437  0.26967936  0.08100651    -0.38700
O186        O  0.36351686  0.29600062  0.55954416    -0.38600
O187        O  0.35698632  0.09322162  0.92875817    -0.39400
O188        O  0.37821844  0.14715969  0.41184928    -0.39400
C189        C  0.27398354  0.43112743  0.10802979    -0.11700
C190        C  0.25952162  0.40772425  0.13610905     0.05300
C191        C  0.25126295  0.35425688  0.13319059    -0.07000
C192        C  0.25674808  0.32567798  0.10129544    -0.07700
C193        C  0.27033148  0.35032944  0.07244265    -0.02300
C194        C  0.27947039  0.40327391  0.07656159     0.04500
N195        N  0.29426858  0.43002410  0.04898049     0.67000
H196        H  0.28056623  0.47220105  0.11017735     0.15900
H197        H  0.24967849  0.28504042  0.09858421     0.15700
N198        N  0.23587011  0.33005691  0.16138959     0.74700
O199        O  0.28132020  0.46244182  0.02949249    -0.38700
O200        O  0.32004813  0.43559752  0.05265844    -0.38600
O201        O  0.21077704  0.34207587  0.16546622    -0.39400
O202        O  0.24873606  0.30836711  0.18693726    -0.39400
C203        C  0.26065937  0.41222545  0.44661042    -0.11700
C204        C  0.26540602  0.35792786  0.44062492     0.05300
C205        C  0.26275238  0.33804734  0.40510541    -0.07000
C206        C  0.25579290  0.37244327  0.37707180    -0.07700
C207        C  0.25086760  0.42668166  0.38328159    -0.02300
C208        C  0.25285117  0.44618045  0.41895092     0.04500
N209        N  0.24693785  0.50008583  0.42815168     0.67000
H210        H  0.26302265  0.42910574  0.47322255     0.15900
H211        H  0.25380703  0.35599961  0.35019056     0.15700
N212        N  0.26598032  0.28303868  0.39676085     0.74700
O213        O  0.22392326  0.51067097  0.44222694    -0.38700
O214        O  0.26677635  0.53202949  0.43275652    -0.38600
O215        O  0.24458932  0.25458912  0.39382495    -0.39400
O216        O  0.28770616  0.26830322  0.38103945    -0.39400
C217        C  0.09499738  0.92747487  0.02983929    -0.11700
C218        C  0.09354436  0.88943000  0.00228531     0.05300
C219        C  0.06313853  0.87214971  0.48519107    -0.07000
C220        C  0.04212250  0.90998046  0.48689527    -0.07700
C221        C  0.04941084  0.96012832  0.01402379    -0.02300
C222        C  0.07295397  0.96156505  0.03664744     0.04500
N223        N  0.07420600  0.99408247  0.06818992     0.67000
H224        H  0.11295514  0.92914742  0.04737443     0.15900
H225        H  0.02377487  0.90452352  0.47039954     0.15700
N226        N  0.05859657  0.82385877  0.46551361     0.74700
O227        O  0.06682054  0.97400236  0.09758433    -0.38700
O228        O  0.09094496  0.03253665  0.06897068    -0.38600
O229        O  0.05618504  0.78071043  0.48224308    -0.39400
O230        O  0.06043721  0.82320553  0.43170511    -0.39400
C231        C  0.17313552  0.75332848  0.12245501    -0.11700
C232        C  0.17464160  0.69782102  0.12068748     0.05300
C233        C  0.16527911  0.67165068  0.08910165    -0.07000
C234        C  0.15563989  0.70120663  0.06001394    -0.07700
C235        C  0.15500222  0.75674346  0.06133838    -0.02300
C236        C  0.16334434  0.78288479  0.09335846     0.04500
N237        N  0.16293956  0.83935287  0.09665744     0.67000
H238        H  0.18011360  0.77421282  0.14641397     0.15900
H239        H  0.14839962  0.68036205  0.03616726     0.15700
N240        N  0.16427658  0.61516062  0.08630780     0.74700
O241        O  0.14363725  0.86082373  0.11410560    -0.38700
O242        O  0.18515601  0.86474746  0.09239661    -0.38600
O243        O  0.14146295  0.59205502  0.09116586    -0.39400
O244        O  0.18268131  0.59172700  0.06839922    -0.39400
C245        C  0.16623524  0.79845778  0.40738144    -0.11700
C246        C  0.14923451  0.76959044  0.43036517     0.05300
C247        C  0.14072573  0.71814970  0.42073299    -0.07000
C248        C  0.15149028  0.69419300  0.38997803    -0.07700
C249        C  0.16982979  0.72179904  0.36763704    -0.02300
C250        C  0.17632365  0.77526010  0.37575245     0.04500
N251        N  0.19395905  0.80594455  0.35336840     0.67000
H252        H  0.17232930  0.83856418  0.41455570     0.15900
H253        H  0.14568863  0.65360603  0.38360863     0.15700
N254        N  0.12088862  0.69040931  0.44190933     0.74700
O255        O  0.18298520  0.83620505  0.33052098    -0.38700
O256        O  0.21819492  0.81598484  0.36414216    -0.38600
O257        O  0.09588020  0.70436929  0.44072531    -0.39400
O258        O  0.12898100  0.66010744  0.46665775    -0.39400
C259        C  0.39379017  0.87753932  0.54668393    -0.11700
C260        C  0.41152452  0.90424694  0.00865334     0.05300
C261        C  0.41372322  0.86972670  0.97908391    -0.07000
C262        C  0.39853295  0.82258826  0.97843051    -0.07700
C263        C  0.37963026  0.81092106  0.00596874    -0.02300
C264        C  0.37930849  0.82973831  0.54413283     0.04500
N265        N  0.35655291  0.82242698  0.56785272     0.67000
H266        H  0.38894779  0.90537478  0.56805187     0.15900
H267        H  0.40105739  0.79583238  0.95580347     0.15700
N268        N  0.43013235  0.88392344  0.94876552     0.74700
O269        O  0.36138486  0.81323533  0.60059132    -0.38700
O270        O  0.33413460  0.86977552  0.05682687    -0.38600
O271        O  0.46170703  0.86830780  0.46605517    -0.39400
O272        O  0.42083972  0.91721700  0.92660695    -0.39400
C273        C  0.33890494  0.65476316  0.09327968    -0.11700
C274        C  0.32244286  0.67281990  0.06467679     0.05300
C275        C  0.29349486  0.67448677  0.06878155    -0.07000
C276        C  0.28172082  0.65733141  0.10054786    -0.07700
C277        C  0.29787914  0.63801533  0.12895835    -0.02300
C278        C  0.32691685  0.63733108  0.12539578     0.04500
N279        N  0.34449940  0.61739761  0.15309567     0.67000
H280        H  0.36117016  0.65360862  0.09048681     0.15900
H281        H  0.25943654  0.65974583  0.10305424     0.15700
N282        N  0.27556201  0.69538098  0.04170770     0.74700
O283        O  0.35206966  0.56959102  0.15145953    -0.38700
O284        O  0.35874339  0.64984285  0.17140757    -0.38600
O285        O  0.26084981  0.66348377  0.02356673    -0.39400
O286        O  0.26791744  0.74304934  0.04441314    -0.39400
C287        C  0.29753845  0.68605468  0.43828480    -0.11700
C288        C  0.32619487  0.67922167  0.43703158     0.05300
C289        C  0.33862084  0.66500359  0.40416854    -0.07000
C290        C  0.32191128  0.65419745  0.37405119    -0.07700
C291        C  0.29297619  0.65752181  0.37615312    -0.02300
C292        C  0.28089604  0.67538292  0.40849433     0.04500
N293        N  0.25182439  0.68383958  0.41164975     0.67000
H294        H  0.28787099  0.69920958  0.46296483     0.15900
H295        H  0.33158728  0.64099642  0.34938054     0.15700
N296        N  0.36784960  0.65912672  0.40113212     0.74700
O297        O  0.23719900  0.64860569  0.42621545    -0.38700
O298        O  0.24277895  0.73067162  0.41026452    -0.38600
O299        O  0.37804453  0.61312620  0.40176677    -0.39400
O300        O  0.38166615  0.69629233  0.38744662    -0.39400
C301        C  0.36917557  0.74329042  0.51066764     0.03700
C302        C  0.35211633  0.74486493  0.96907287    -0.12500
C303        C  0.33467860  0.70051672  0.96651389     0.01200
C304        C  0.32677383  0.67434045  0.99799332    -0.11000
C305        C  0.34117183  0.67239713  0.53582689     0.03700
C306        C  0.36060723  0.71312596  0.54027268    -0.10400
H307        H  0.35630778  0.76752285  0.94510295     0.09300
H308        H  0.31234869  0.64142492  0.99643045     0.06800
H309        H  0.36759524  0.72334471  0.56710696     0.06700
C310        C  0.11091935  0.84313823  0.50267192     0.03700
C311        C  0.12730195  0.83635232  0.96602336    -0.12500
C312        C  0.14661758  0.79549133  0.96359725     0.01200
C313        C  0.15633165  0.77109204  0.99493210    -0.11000
C314        C  0.14434402  0.78456377  0.53071932     0.03700
C315        C  0.12274604  0.82101858  0.53366572    -0.10400
H316        H  0.12042128  0.85591295  0.94177990     0.09300
H317        H  0.17142885  0.73955472  0.99278398     0.06800
H318        H  0.11431202  0.83025979  0.55987284     0.06700
C319        C  0.30433616  0.26207047  0.50216209     0.03700
C320        C  0.29261547  0.28951507  0.96953613    -0.12500
C321        C  0.26997895  0.32396254  0.97252563     0.01200
C322        C  0.26118000  0.33983390  0.00688112    -0.11000
C323        C  0.27075489  0.31235642  0.53719278     0.03700
C324        C  0.29112596  0.27331294  0.53504026    -0.10400
H325        H  0.30089345  0.28145201  0.94311147     0.09300
H326        H  0.24506650  0.36940530  0.00947579     0.06800
H327        H  0.29721053  0.25368176  0.55945958     0.06700
N328        N  0.47159251  0.98575717  0.52014537    -0.36000
N329        N  0.00328320  0.08067022  0.50428099    -0.56600
N330        N  0.45008281  0.13519959  0.49602610    -0.36000
N331        N  0.41958311  0.03789312  0.50603431    -0.56600
C332        C  0.49690494  0.97075236  0.53174513     0.27500
C333        C  0.45366844  0.94791003  0.53073601     0.27500
C334        C  0.46777286  0.17443038  0.48712633     0.27500
C335        C  0.42455092  0.15118730  0.48600660     0.27500
C336        C  0.02382202  0.04449393  0.50489641     0.36200
C337        C  0.01515400  0.12797097  0.49779911     0.36200
C338        C  0.40938408  0.98899465  0.51164221     0.36200
C339        C  0.39773039  0.06986061  0.50082414     0.36200
C340        C  0.49492931  0.92359960  0.55048857    -0.21300
C341        C  0.46759567  0.90908591  0.54978412    -0.21300
C342        C  0.45335434  0.21553034  0.47105771    -0.21300
C343        C  0.42606013  0.20090533  0.47043702    -0.21300
C344        C  0.04892080  0.06887043  0.49830025    -0.22400
C345        C  0.04354587  0.12202487  0.49485156    -0.22400
C346        C  0.38076402  0.98959293  0.50939506    -0.22400
C347        C  0.37334728  0.04130951  0.50352413    -0.22400
C348        C  0.02003418  0.99034808  0.51296561    -0.17700
C349        C  0.42551275  0.94482212  0.52113707    -0.17700
C350        C  0.39957620  0.12404670  0.49250846    -0.17700
C351        C  0.00074550  0.17599065  0.49265633    -0.17700
H352        H  0.00524866  0.89522543  0.54917746     0.15200
H353        H  0.45900667  0.87331628  0.56118654     0.15200
H354        H  0.46164861  0.25235149  0.46086776     0.15200
H355        H  0.40918426  0.22433588  0.45987682     0.15200
H356        H  0.06904344  0.05061909  0.49632247     0.13500
H357        H  0.05878517  0.15234636  0.48946547     0.13500
H358        H  0.36658166  0.95684148  0.51284758     0.13500
H359        H  0.35243552  0.05592766  0.50091526     0.13500
H360        H  0.46757313  0.01480231  0.50113222     0.26700
H361        H  0.45467591  0.10277434  0.51193779     0.26700
C362        C  0.06642454  0.36857828  0.49225423     0.03700
C363        C  0.07690630  0.38558832  0.52609416    -0.12500
C364        C  0.09614721  0.42705434  0.52864648     0.01200
C365        C  0.10882306  0.44816056  0.00104218    -0.11000
C366        C  0.09885843  0.42893993  0.96821854     0.03700
C367        C  0.07761137  0.39120351  0.96780129    -0.10400
H368        H  0.07166494  0.36478212  0.55045684     0.09300
H369        H  0.12479689  0.47840536  0.00131479     0.06800
H370        H  0.06861970  0.38021372  0.94223158     0.06700
O371        O  0.28283288  0.62749837  0.81186176    -0.74700
O372        O  0.24903614  0.60505262  0.85129347    -0.53600
C373        C  0.27241617  0.62595115  0.84365105     0.79000
O374        O  0.18360118  0.68744438  0.68285855    -0.59300
O375        O  0.19699393  0.62088189  0.64506406    -0.52400
C376        C  0.18583599  0.66611031  0.65145467     0.71000
O377        O  0.18458401  0.70559906  0.80405455    -0.73900
O378        O  0.19354656  0.64318500  0.84664015    -0.54400
C379        C  0.18498801  0.68907598  0.83678094     0.77000
O380        O  0.29069724  0.60384197  0.69163110    -0.59000
O381        O  0.25719052  0.57994891  0.65132904    -0.52100
C382        C  0.28154912  0.59678250  0.65936825     0.73600
Zr383      Zr  0.26944461  0.59888898  0.75122952     2.54700
O384        O  0.29097234  0.68575530  0.74548329    -0.79600
O385        O  0.31362925  0.55416093  0.75907740    -0.93000
Zr386      Zr  0.19423667  0.66488149  0.74509548     2.64700
O387        O  0.21946801  0.74836072  0.74110950    -0.98000
O388        O  0.15018352  0.71108333  0.74316912    -0.80000
O389        O  0.23112128  0.63604392  0.78212292    -0.83400
O390        O  0.23305789  0.63029878  0.71372008    -2.18100
O391        O  0.24310806  0.41378956  0.69698060    -0.66800
O392        O  0.23345319  0.47545407  0.65409742    -0.51300
C393        C  0.24169695  0.42961638  0.66419016     0.72000
O394        O  0.14175080  0.50108107  0.80805576    -0.59700
O395        O  0.17324802  0.53290792  0.84875548    -0.51700
C396        C  0.15061359  0.50913746  0.84040687     0.73800
O397        O  0.14664318  0.49459136  0.68538889    -0.71100
O398        O  0.18143590  0.51353586  0.64652814    -0.49800
C399        C  0.15758585  0.49459764  0.65375795     0.75200
O400        O  0.23986377  0.42850799  0.81860297    -0.66400
O401        O  0.22788385  0.49680646  0.85567671    -0.53600
C402        C  0.23685522  0.44966605  0.84997385     0.73600
Zr403      Zr  0.23445165  0.45460020  0.75574077     2.77500
O404        O  0.20962878  0.37068656  0.75959998    -0.97200
O405        O  0.27914103  0.41076120  0.75910430    -0.78000
Zr406      Zr  0.15927950  0.52017153  0.74757830     2.70100
O407        O  0.13309333  0.43767231  0.74643120    -0.79200
O408        O  0.11593520  0.56875351  0.74395373    -0.98300
Zr409      Zr  0.21222669  0.56634147  0.81652160     2.21500
Zr410      Zr  0.21646139  0.55338307  0.68334830     2.11100
O411        O  0.19799229  0.48311788  0.71802673    -2.47000
O412        O  0.19551749  0.48991050  0.78570532    -0.79000
O413        O  0.25352773  0.52270553  0.71946271    -0.71200
O414        O  0.17486930  0.59602604  0.78031075    -2.32200
O415        O  0.25159502  0.52990714  0.78758446    -2.28400
O416        O  0.17726701  0.59003410  0.71230538    -0.73000
H417        H  0.23991132  0.65621715  0.69682969     0.79000
H418        H  0.15986664  0.60952468  0.79501594     0.80100
H419        H  0.19228413  0.45324637  0.70312894     0.82300
H420        H  0.26561137  0.51945206  0.80508058     0.79900
H421        H  0.13702077  0.68645482  0.75468499     0.43000
H422        H  0.11442670  0.58755706  0.76730653     0.42000
H423        H  0.14662092  0.41034882  0.75376882     0.41600
H424        H  0.20060212  0.36601343  0.73583107     0.39600
H425        H  0.28926383  0.42984968  0.77846584     0.42700
H426        H  0.31351844  0.54115020  0.78412173     0.37500
H427        H  0.31097243  0.67834522  0.74333249     0.43600
H428        H  0.23437406  0.74542880  0.75934038     0.40000
H429        H  0.22430040  0.34341117  0.76011123     0.44900
H430        H  0.32750711  0.58306949  0.75922447     0.43700
H431        H  0.22913737  0.74671477  0.71776621     0.43800
H432        H  0.11942078  0.59712054  0.72627237     0.44100
C433        C  0.11279692  0.47773532  0.62287551    -0.11700
C434        C  0.14162383  0.47203781  0.62331917     0.05300
C435        C  0.15465161  0.44744516  0.59358116    -0.07000
C436        C  0.13890057  0.43090883  0.56416829    -0.07700
C437        C  0.11041224  0.43943409  0.56283352    -0.02300
C438        C  0.09714537  0.46229449  0.59276490     0.04500
N439        N  0.06827881  0.47358223  0.59224008     0.67000
H440        H  0.10247253  0.49679692  0.64524657     0.16900
H441        H  0.14921325  0.41239385  0.54155822     0.15700
N442        N  0.18371989  0.43787300  0.59258271     0.74700
O443        O  0.05213090  0.44352322  0.60916233    -0.38700
O444        O  0.06055355  0.52008730  0.58499240    -0.38600
O445        O  0.19190134  0.39050108  0.59410315    -0.39400
O446        O  0.19910109  0.47174963  0.57785400    -0.39400
C447        C  0.15184894  0.46047110  0.89700415    -0.11700
C448        C  0.13568725  0.48604577  0.87100048     0.05300
C449        C  0.10692924  0.49024237  0.87624593    -0.07000
C450        C  0.09517839  0.47042684  0.90784104    -0.07700
C451        C  0.11164596  0.44665670  0.93436134    -0.02300
C452        C  0.14027281  0.44090073  0.92838175     0.04500
N453        N  0.15794998  0.41428896  0.95333229     0.67000
H454        H  0.17389614  0.45572824  0.89300656     0.15900
H455        H  0.07320014  0.47511187  0.91220314     0.15700
N456        N  0.08959508  0.51716765  0.85118823     0.74700
O457        O  0.16300694  0.36575238  0.94822277    -0.38700
O458        O  0.17465243  0.44150658  0.97205157    -0.38600
O459        O  0.07354929  0.49016809  0.83140034    -0.39400
O460        O  0.08431377  0.56554592  0.85658334    -0.39400
C461        C  0.03096761  0.23939703  0.97116166    -0.11700
C462        C  0.01684048  0.22572367  0.49177582     0.05300
C463        C  0.01608699  0.26112399  0.52092001    -0.07000
C464        C  0.03061593  0.30898249  0.51930934    -0.07700
C465        C  0.04772438  0.32095121  0.48977291    -0.02300
C466        C  0.04897375  0.28259137  0.97017220     0.04500
N467        N  0.06863065  0.28311498  0.94171023     0.67000
H468        H  0.03113252  0.21065934  0.94934741     0.15900
H469        H  0.02895231  0.33602973  0.54188898     0.15700
N470        N  0.49205463  0.25482835  0.54865642     0.74700
O471        O  0.09042949  0.25627845  0.94534585    -0.38700
O472        O  0.06034247  0.29388375  0.91036447    -0.38600
O473        O  0.49903247  0.22098050  0.57181909    -0.39400
O474        O  0.47474198  0.25494191  0.04903995    -0.39400
C475        C  0.37058271  0.18670856  0.52536354    -0.11700
C476        C  0.37430219  0.15635344  0.49444395     0.05300
C477        C  0.35851667  0.17083233  0.96315146    -0.07000
C478        C  0.33454333  0.20138362  0.96751528    -0.07700
C479        C  0.32849467  0.22499437  0.50039067    -0.02300
C480        C  0.34849499  0.22157209  0.52849540     0.04500
N481        N  0.34828362  0.25531467  0.55949055     0.67000
H482        H  0.38574028  0.18480215  0.54692090     0.15900
H483        H  0.31835947  0.19785534  0.94742511     0.15700
N484        N  0.36286285  0.14194640  0.93045969     0.74700
O485        O  0.34172977  0.23536782  0.58928844    -0.38700
O486        O  0.36917438  0.32361448  0.04082626    -0.38600
O487        O  0.35074020  0.08442174  0.42988702    -0.39400
O488        O  0.37805621  0.16188872  0.90662269    -0.39400
C489        C  0.26826001  0.41754879  0.60949576    -0.11700
C490        C  0.25118087  0.39469894  0.63515317     0.05300
C491        C  0.24178332  0.34219182  0.63033827    -0.07000
C492        C  0.24855126  0.31438347  0.59852628    -0.07700
C493        C  0.26482247  0.33876672  0.57199060    -0.02300
C494        C  0.27528664  0.39029471  0.57841849     0.04500
N495        N  0.29330444  0.41593749  0.55371962     0.67000
H496        H  0.27598542  0.45763481  0.61337523     0.15900
H497        H  0.24056324  0.27468893  0.59409203     0.15700
N498        N  0.22437169  0.31818524  0.65658423     0.74700
O499        O  0.28379726  0.45313723  0.53484549    -0.38700
O500        O  0.31896575  0.41443619  0.55978234    -0.38600
O501        O  0.19951764  0.33271051  0.65912271    -0.39400
O502        O  0.23536127  0.29366041  0.68240310    -0.39400
C503        C  0.26181944  0.40927691  0.94267391    -0.11700
C504        C  0.26009054  0.35392922  0.94075819     0.05300
C505        C  0.25028827  0.33000260  0.90864034    -0.07000
C506        C  0.24268005  0.36191470  0.87947114    -0.07700
C507        C  0.24449627  0.41748607  0.88162350    -0.02300
C508        C  0.25406393  0.44102730  0.91393108     0.04500
N509        N  0.25686894  0.49709162  0.91808312     0.67000
H510        H  0.26989701  0.42837384  0.96663759     0.15900
H511        H  0.23506220  0.34300634  0.85509306     0.15700
N512        N  0.24713362  0.27386675  0.90524879     0.74700
O513        O  0.23848880  0.52180410  0.93521103    -0.38700
O514        O  0.28052155  0.51773131  0.91515670    -0.38600
O515        O  0.22336316  0.25405283  0.90897205    -0.39400
O516        O  0.26494586  0.24815675  0.88773943    -0.39400
C517        C  0.08903841  0.92194558  0.53015689    -0.11700
C518        C  0.08737465  0.87965203  0.50575570     0.05300
C519        C  0.06991698  0.88730819  0.97993769    -0.07000
C520        C  0.04848111  0.92346188  0.98538181    -0.07700
C521        C  0.04379924  0.95291256  0.51125830    -0.02300
C522        C  0.06708509  0.95715792  0.53419639     0.04500
N523        N  0.06793775  0.99361523  0.56369887     0.67000
H524        H  0.10719119  0.92669928  0.54709373     0.15900
H525        H  0.03029993  0.92120032  0.96825174     0.15700
N526        N  0.06618564  0.84549634  0.95418219     0.74700
O527        O  0.05901712  0.97809629  0.59364528    -0.38700
O528        O  0.08537509  0.03088521  0.56326331    -0.38600
O529        O  0.06152905  0.79888360  0.96473325    -0.39400
O530        O  0.06969798  0.85419016  0.92116259    -0.39400
C531        C  0.17673287  0.75166639  0.62105082    -0.11700
C532        C  0.17472935  0.69608243  0.62066156     0.05300
C533        C  0.16171751  0.67057326  0.59112934    -0.07000
C534        C  0.15178912  0.70059427  0.56253988    -0.07700
C535        C  0.15442844  0.75585604  0.56252601    -0.02300
C536        C  0.16669560  0.78170772  0.59232739     0.04500
N537        N  0.17012361  0.83799153  0.59334985     0.67000
H538        H  0.18658107  0.77192629  0.64352015     0.15900
H539        H  0.14172101  0.68049075  0.54016518     0.15700
N540        N  0.15718749  0.61458345  0.59022677     0.74700
O541        O  0.15301015  0.86567612  0.61066951    -0.38700
O542        O  0.19350481  0.85742089  0.58631325    -0.38600
O543        O  0.13337612  0.59712000  0.59719974    -0.39400
O544        O  0.17344769  0.58586234  0.57230078    -0.39400
C545        C  0.17247084  0.79883764  0.90582439    -0.11700
C546        C  0.15388886  0.77280593  0.92837566     0.05300
C547        C  0.14293310  0.72340716  0.91795275    -0.07000
C548        C  0.15292613  0.69790307  0.88733433    -0.07700
C549        C  0.17285508  0.72214504  0.86557444    -0.02300
C550        C  0.18162789  0.77439550  0.87402042     0.04500
N551        N  0.20026263  0.80273109  0.85155503     0.67000
H552        H  0.18028354  0.83772220  0.91328523     0.15900
H553        H  0.14509717  0.65875115  0.88048656     0.15700
N554        N  0.12088785  0.69986652  0.93768027     0.74700
O555        O  0.19049902  0.83737947  0.83074598    -0.38700
O556        O  0.22534613  0.80595147  0.86076242    -0.38600
O557        O  0.09665303  0.71721455  0.93358107    -0.39400
O558        O  0.12620404  0.66936113  0.96353474    -0.39400
C559        C  0.39414231  0.89186244  0.03700954    -0.11700
C560        C  0.41261501  0.89178762  0.52028295     0.05300
C561        C  0.41849740  0.85647664  0.49201017    -0.07000
C562        C  0.40550019  0.80695039  0.49059798    -0.07700
C563        C  0.38527720  0.79320533  0.51597172    -0.02300
C564        C  0.37722025  0.84721056  0.03528080     0.04500
N565        N  0.35592015  0.84325230  0.06155011     0.67000
H566        H  0.39223763  0.91922852  0.05946078     0.15900
H567        H  0.41039055  0.78013050  0.46868473     0.15700
N568        N  0.43583226  0.87261590  0.46305685     0.74700
O569        O  0.36249603  0.83024669  0.09316315    -0.38700
O570        O  0.33339855  0.84141201  0.55905355    -0.38600
O571        O  0.45555707  0.87301627  0.94864275    -0.39400
O572        O  0.42590287  0.90178203  0.43877663    -0.39400
C573        C  0.34108367  0.62631824  0.59509626    -0.11700
C574        C  0.32642126  0.65134405  0.56733955     0.05300
C575        C  0.29762542  0.65801989  0.57058196    -0.07000
C576        C  0.28410382  0.63909487  0.60068060    -0.07700
C577        C  0.29842648  0.61380951  0.62852102    -0.02300
C578        C  0.32737651  0.60753826  0.62572122     0.04500
N579        N  0.34308434  0.58099683  0.65273844     0.67000
H580        H  0.36322885  0.62112303  0.59287599     0.15900
H581        H  0.26203801  0.64584221  0.60267975     0.15700
N582        N  0.28180559  0.68669059  0.54465796     0.74700
O583        O  0.34833131  0.53235685  0.64850887    -0.38700
O584        O  0.35826754  0.60823971  0.67351091    -0.38600
O585        O  0.26501619  0.66148039  0.52481801    -0.39400
O586        O  0.27811727  0.73571943  0.54961979    -0.39400
C587        C  0.29102386  0.68546955  0.93435923    -0.11700
C588        C  0.31985847  0.68716210  0.93277703     0.05300
C589        C  0.33306285  0.67346281  0.90029704    -0.07000
C590        C  0.31721698  0.65466152  0.87116616    -0.07700
C591        C  0.28835499  0.64968858  0.87376321    -0.02300
C592        C  0.27525108  0.66685096  0.90565124     0.04500
N593        N  0.24589976  0.66689193  0.90948824     0.67000
H594        H  0.28051709  0.69811448  0.95857292     0.15900
H595        H  0.32766965  0.64262823  0.84677401     0.15700
N596        N  0.36235581  0.67690205  0.89653967     0.74700
O597        O  0.23470892  0.63070788  0.92759465    -0.38700
O598        O  0.23308770  0.70988702  0.90523897    -0.38600
O599        O  0.37640571  0.63483359  0.89733835    -0.39400
O600        O  0.37251041  0.71748089  0.88192225    -0.39400
C601        C  0.86687898  0.74670900  0.00362261     0.03700
C602        C  0.85117190  0.73812794  0.46750720    -0.12500
C603        C  0.83417044  0.69300343  0.46506505     0.01200
C604        C  0.82659506  0.66679932  0.49663239    -0.11000
C605        C  0.83954029  0.67630355  0.03077680     0.03700
C606        C  0.85909477  0.71694268  0.03382373    -0.10400
H607        H  0.85486385  0.76098297  0.44346886     0.09300
H608        H  0.81171992  0.63458008  0.49536415     0.06800
H609        H  0.86688296  0.72702762  0.06024720     0.06700
C610        C  0.61965640  0.85614506  0.99416486     0.03700
C611        C  0.62249115  0.83492867  0.46720130    -0.12500
C612        C  0.64249459  0.79537873  0.46397660     0.01200
C613        C  0.65434958  0.77347146  0.49486824    -0.11000
C614        C  0.65147282  0.80113160  0.02801733     0.03700
C615        C  0.62973007  0.83713219  0.02710180    -0.10400
H616        H  0.61337728  0.85185633  0.44323457     0.09300
H617        H  0.66937532  0.74186140  0.49227172     0.06800
H618        H  0.61956963  0.84788081  0.05198577     0.06700
C619        C  0.80641330  0.26572728  0.99984842     0.03700
C620        C  0.79279980  0.29338634  0.46186348    -0.12500
C621        C  0.76970414  0.32668344  0.46355000     0.01200
C622        C  0.75940145  0.34175097  0.49729468    -0.11000
C623        C  0.77556237  0.32590712  0.03198141     0.03700
C624        C  0.79389952  0.28311046  0.03201958    -0.10400
H625        H  0.80208500  0.28519600  0.43600713     0.09300
H626        H  0.74281730  0.37049845  0.49899124     0.06800
H627        H  0.79934846  0.26556213  0.05746058     0.06700
N628        N  0.97407022  0.98542358  0.01659569    -0.36000
N629        N  0.50624432  0.08360143  0.99602749    -0.56600
N630        N  0.95311802  0.13965803  0.00478590    -0.36000
N631        N  0.92226770  0.04090367  0.00748626    -0.56600
C632        C  0.99941558  0.96831161  0.02669638     0.27500
C633        C  0.95603596  0.94606018  0.02422478     0.27500
C634        C  0.97100795  0.17979119  0.99859222     0.27500
C635        C  0.92766229  0.15729867  0.99573381     0.27500
C636        C  0.52739638  0.04878823  0.99605224     0.36200
C637        C  0.51725824  0.13169747  0.98963979     0.36200
C638        C  0.91172479  0.99159790  0.01026799     0.36200
C639        C  0.90058103  0.07411530  0.00508434     0.36200
C640        C  0.99737704  0.91809141  0.04135959    -0.21300
C641        C  0.96998423  0.90405323  0.03983368    -0.21300
C642        C  0.95672389  0.22341255  0.98564838    -0.21300
C643        C  0.92940709  0.20922508  0.98383142    -0.21300
C644        C  0.55193807  0.07484720  0.98889324    -0.22400
C645        C  0.54566977  0.12761121  0.98609663    -0.22400
C646        C  0.88308230  0.99345388  0.00930641    -0.22400
C647        C  0.87603872  0.04591582  0.00704620    -0.22400
C648        C  0.52485578  0.99437039  0.00409665    -0.17700
C649        C  0.92754425  0.94540990  0.01583878    -0.17700
C650        C  0.90255912  0.12916321  0.99941788    -0.17700
C651        C  0.50204002  0.17880905  0.98491782    -0.17700
H652        H  0.51311275  0.89600981  0.03846481     0.15200
H653        H  0.96133944  0.86676605  0.04869374     0.15200
H654        H  0.96512361  0.26152278  0.97804730     0.15200
H655        H  0.91269688  0.23436152  0.97473751     0.15200
H656        H  0.57232467  0.05799422  0.98609548     0.13500
H657        H  0.56036459  0.15882871  0.98059333     0.13500
H658        H  0.86860854  0.96085509  0.01101119     0.13500
H659        H  0.85519486  0.06129728  0.00612243     0.13500
H660        H  0.97001065  0.01819410  0.00063904     0.26700
H661        H  0.95760087  0.10452012  0.01785532     0.26700
C662        C  0.56214860  0.37808719  0.99043105     0.03700
C663        C  0.57041030  0.39839448  0.02444449    -0.12500
C664        C  0.58557085  0.44573266  0.02730948     0.01200
C665        C  0.60227702  0.44877396  0.49412037    -0.11000
C666        C  0.59284890  0.43003054  0.46087769     0.03700
C667        C  0.57229504  0.39109221  0.45951573    -0.10400
H668        H  0.56680143  0.37597572  0.04867056     0.09300
H669        H  0.61770134  0.48004587  0.49485978     0.06800
H670        H  0.56376139  0.38034891  0.43363614     0.06700
O671        O  0.77962904  0.63377366  0.30854304    -0.74700
O672        O  0.74618808  0.60927667  0.34802935    -0.53600
C673        C  0.76965033  0.63001315  0.34056074     0.79000
O674        O  0.67728396  0.69613358  0.18280485    -0.59300
O675        O  0.69160605  0.63289890  0.14288944    -0.52400
C676        C  0.68006833  0.67718007  0.15083858     0.71000
O677        O  0.67896018  0.70651087  0.30439555    -0.73900
O678        O  0.68935185  0.64282849  0.34552820    -0.54400
C679        C  0.67998449  0.68860312  0.33677589     0.77000
O680        O  0.78511030  0.61699007  0.18620629    -0.59000
O681        O  0.75176352  0.59485766  0.14506816    -0.52100
C682        C  0.77618822  0.61067742  0.15370723     0.73600
Zr683      Zr  0.76499049  0.61164904  0.24676232     2.54700
O684        O  0.78301475  0.70153906  0.24229796    -0.79600
O685        O  0.81114003  0.57419122  0.25273429    -0.93000
Zr686      Zr  0.68789740  0.66955164  0.24410629     2.64700
O687        O  0.70742616  0.75848730  0.24074967    -0.98000
O688        O  0.64092593  0.70364614  0.24504501    -0.80000
O689        O  0.72625650  0.64351056  0.27956562    -0.83400
O690        O  0.72715017  0.64069448  0.21088419    -2.18100
O691        O  0.74440900  0.42850308  0.18894584    -0.66800
O692        O  0.73149429  0.48938514  0.14695958    -0.51300
C693        C  0.74186236  0.44480818  0.15641663     0.72000
O694        O  0.63952649  0.50285556  0.30361267    -0.59700
O695        O  0.67169524  0.53136188  0.34452177    -0.51700
C696        C  0.64868426  0.50903932  0.33592261     0.73800
O697        O  0.64174579  0.50509205  0.18174664    -0.71100
O698        O  0.67579508  0.52635137  0.14233684    -0.49800
C699        C  0.65177590  0.50809175  0.14979376     0.75200
O700        O  0.74114406  0.43509477  0.31030872    -0.66400
O701        O  0.72747348  0.49993010  0.34921286    -0.53600
C702        C  0.73771759  0.45424851  0.34216985     0.73600
Zr703      Zr  0.73417302  0.46421041  0.24841509     2.77500
O704        O  0.71222588  0.37721041  0.24957989    -0.97200
O705        O  0.78038368  0.42648405  0.25079846    -0.78000
Zr706      Zr  0.65738596  0.52155036  0.24370495     2.70100
O707        O  0.63897804  0.43144931  0.24440970    -0.79200
O708        O  0.61142274  0.56047268  0.24208502    -0.98300
Zr709      Zr  0.70972480  0.57016796  0.31270541     2.21500
Zr710      Zr  0.71234085  0.56396157  0.17841236     2.11100
O711        O  0.69634051  0.49006567  0.21173444    -2.47000
O712        O  0.69494566  0.49379787  0.28034713    -0.79000
O713        O  0.75065626  0.53586902  0.21338321    -0.71200
O714        O  0.67108948  0.59719231  0.27798822    -2.32200
O715        O  0.74954683  0.53931236  0.28181731    -2.28400
O716        O  0.67291052  0.59484278  0.20974569    -0.73000
H717        H  0.73310163  0.66824230  0.19456171     0.79000
H718        H  0.65599715  0.60835897  0.29305803     0.80100
H719        H  0.69098879  0.46078440  0.19599820     0.82300
H720        H  0.76413566  0.52928753  0.29851127     0.79900
H721        H  0.62925721  0.67267022  0.23857303     0.43000
H722        H  0.59876608  0.52966155  0.24014120     0.42000
H723        H  0.63787462  0.41999040  0.21894751     0.41600
H724        H  0.69690756  0.38121654  0.26689152     0.39600
H725        H  0.79288124  0.45753286  0.24932516     0.42700
H726        H  0.82366711  0.60528939  0.25248067     0.37500
H727        H  0.77066759  0.72302539  0.25768895     0.43600
H728        H  0.71812477  0.76282309  0.26335457     0.40000
H729        H  0.70290457  0.37358339  0.22592790     0.44900
H730        H  0.81458428  0.55575252  0.22961162     0.43700
H731        H  0.72161736  0.75623245  0.22176200     0.43800
H732        H  0.60846181  0.57458694  0.26665480     0.44100
C733        C  0.60565361  0.49602056  0.12071857    -0.11700
C734        C  0.63447176  0.48944940  0.11938304     0.05300
C735        C  0.64626764  0.46581777  0.08856258    -0.07000
C736        C  0.62942739  0.45065120  0.05989017    -0.07700
C737        C  0.60088500  0.45882207  0.06059236    -0.02300
C738        C  0.58876712  0.48102882  0.09155943     0.04500
N739        N  0.55968249  0.48962428  0.09374519     0.67000
H740        H  0.59623870  0.51401626  0.14415475     0.16900
H741        H  0.63884270  0.43249742  0.03651413     0.15700
N742        N  0.67515656  0.45495796  0.08613798     0.74700
O743        O  0.54504754  0.45600280  0.10992049    -0.38700
O744        O  0.55048295  0.53600044  0.08966927    -0.38600
O745        O  0.68323543  0.40787320  0.09036978    -0.39400
O746        O  0.69035305  0.48672464  0.06914264    -0.39400
C747        C  0.64809489  0.46069289  0.39275394    -0.11700
C748        C  0.63294433  0.48656411  0.36593988     0.05300
C749        C  0.60399075  0.49069177  0.36926046    -0.07000
C750        C  0.59106590  0.47170140  0.40029221    -0.07700
C751        C  0.60654284  0.44767603  0.42767185    -0.02300
C752        C  0.63522325  0.44061861  0.42308973     0.04500
N753        N  0.65145381  0.41087431  0.44801873     0.67000
H754        H  0.67020739  0.45527154  0.38991329     0.15900
H755        H  0.56895716  0.47651063  0.40329956     0.15700
N756        N  0.58753378  0.51544549  0.34221486     0.74700
O757        O  0.65493499  0.36199821  0.44213255    -0.38700
O758        O  0.66844921  0.43512475  0.46809502    -0.38600
O759        O  0.57330549  0.48667688  0.32124273    -0.39400
O760        O  0.58139519  0.56379517  0.34575517    -0.39400
C761        C  0.52753870  0.23647529  0.46085410    -0.11700
C762        C  0.51705029  0.22965743  0.98575691     0.05300
C763        C  0.51511570  0.26310908  0.01584308    -0.07000
C764        C  0.52879124  0.31198850  0.01602802    -0.07700
C765        C  0.54635054  0.32673223  0.98752199    -0.02300
C766        C  0.54490879  0.28068380  0.46010740     0.04500
N767        N  0.56413285  0.28324964  0.43120274     0.67000
H768        H  0.52837015  0.20760888  0.43915153     0.15900
H769        H  0.52590038  0.33782485  0.03902237     0.15700
N770        N  0.99932076  0.25569217  0.06159141     0.74700
O771        O  0.58615471  0.25679526  0.43359883    -0.38700
O772        O  0.55520013  0.29513599  0.40034176    -0.38600
O773        O  0.00789817  0.22122674  0.08340447    -0.39400
O774        O  0.97631156  0.25882233  0.55565724    -0.39400
C775        C  0.87222291  0.19379618  0.02875670    -0.11700
C776        C  0.87685784  0.16061929  0.99938924     0.05300
C777        C  0.85559714  0.16951985  0.46228942    -0.07000
C778        C  0.83234561  0.20198399  0.46508686    -0.07700
C779        C  0.83042811  0.22828496  0.00057854    -0.02300
C780        C  0.85020447  0.22911791  0.02901792     0.04500
N781        N  0.85049173  0.26920931  0.05633513     0.67000
H782        H  0.88708239  0.19492371  0.05069679     0.15900
H783        H  0.81562070  0.19644602  0.44592589     0.15700
N784        N  0.85746136  0.13373984  0.43244345     0.74700
O785        O  0.84532802  0.25608505  0.08827683    -0.38700
O786        O  0.86875873  0.33274269  0.53030536    -0.38600
O787        O  0.86011559  0.08564114  0.93358039    -0.39400
O788        O  0.86854653  0.14988847  0.40392521    -0.39400
C789        C  0.76896049  0.43505915  0.10161656    -0.11700
C790        C  0.75220308  0.41123799  0.12723890     0.05300
C791        C  0.74454965  0.35763434  0.12324006    -0.07000
C792        C  0.75281793  0.32926604  0.09244670    -0.07700
C793        C  0.76871321  0.35414881  0.06582034    -0.02300
C794        C  0.77747086  0.40715547  0.07133002     0.04500
N795        N  0.79527205  0.43352488  0.04670458     0.67000
H796        H  0.77538041  0.47605862  0.10501905     0.15900
H797        H  0.74615731  0.28852693  0.08875473     0.15700
N798        N  0.72732137  0.33280779  0.14931564     0.74700
O799        O  0.78479833  0.46634580  0.02513689    -0.38700
O800        O  0.82052769  0.43808021  0.05481785    -0.38600
O801        O  0.70198271  0.34433831  0.15041841    -0.39400
O802        O  0.73839118  0.31061953  0.17605044    -0.39400
C803        C  0.76269891  0.41221363  0.43412507    -0.11700
C804        C  0.76094466  0.35694567  0.43158958     0.05300
C805        C  0.75200223  0.33347119  0.39894476    -0.07000
C806        C  0.74472569  0.36590661  0.36996799    -0.07700
C807        C  0.74608197  0.42141922  0.37297071    -0.02300
C808        C  0.75522900  0.44449134  0.40563178     0.04500
N809        N  0.75789475  0.50056280  0.41035577     0.67000
H810        H  0.77035495  0.43079133  0.45850909     0.15900
H811        H  0.73751445  0.34751678  0.34520421     0.15700
N812        N  0.74935437  0.27732673  0.39485122     0.74700
O813        O  0.73891481  0.52527969  0.42636359    -0.38700
O814        O  0.78163165  0.52122201  0.40890383    -0.38600
O815        O  0.72569553  0.25668107  0.39766393    -0.39400
O816        O  0.76770730  0.25254884  0.37767828    -0.39400
C817        C  0.59607183  0.93420226  0.01926470    -0.11700
C818        C  0.59582580  0.89249486  0.99431381     0.05300
C819        C  0.56491188  0.87984798  0.48783355    -0.07000
C820        C  0.54349560  0.91608221  0.49283576    -0.07700
C821        C  0.54966143  0.95959546  0.00165781    -0.02300
C822        C  0.57305742  0.96628976  0.02414302     0.04500
N823        N  0.57339972  0.00267953  0.05371379     0.67000
H824        H  0.61399212  0.94059936  0.03639608     0.15900
H825        H  0.52405819  0.90958272  0.47881511     0.15700
N826        N  0.55972465  0.83214862  0.46782476     0.74700
O827        O  0.56679502  0.98534607  0.08421684    -0.38700
O828        O  0.58922565  0.04245357  0.05226137    -0.38600
O829        O  0.55789474  0.78850941  0.48407901    -0.39400
O830        O  0.56038102  0.83257249  0.43393598    -0.39400
C831        C  0.67680283  0.76390899  0.12095221    -0.11700
C832        C  0.67020556  0.70971691  0.12096018     0.05300
C833        C  0.65547530  0.68752151  0.09168435    -0.07000
C834        C  0.64929237  0.71884857  0.06212089    -0.07700
C835        C  0.65729018  0.77212825  0.06118144    -0.02300
C836        C  0.67024559  0.79547007  0.09139282     0.04500
N837        N  0.67729857  0.85049796  0.09238660     0.67000
H838        H  0.68773606  0.78152696  0.14360015     0.15900
H839        H  0.63809458  0.70143022  0.03963209     0.15700
N840        N  0.64563584  0.63406443  0.09196234     0.74700
O841        O  0.66058743  0.88269851  0.10650965    -0.38700
O842        O  0.70233345  0.86380376  0.08954621    -0.38600
O843        O  0.62063094  0.62575124  0.09958201    -0.39400
O844        O  0.65853693  0.59938870  0.07419688    -0.39400
C845        C  0.66708496  0.79819553  0.40566178    -0.11700
C846        C  0.64899741  0.77207445  0.42875036     0.05300
C847        C  0.63906465  0.72132409  0.41966438    -0.07000
C848        C  0.64908189  0.69549387  0.38908432    -0.07700
C849        C  0.66817572  0.72052511  0.36639246    -0.02300
C850        C  0.67647759  0.77321575  0.37425648     0.04500
N851        N  0.69523176  0.80130476  0.35179421     0.67000
H852        H  0.67454435  0.83754896  0.41257426     0.15900
H853        H  0.64197270  0.65557960  0.38302840     0.15700
N854        N  0.61874058  0.69597636  0.44143044     0.74700
O855        O  0.68543046  0.83298960  0.32896087    -0.38700
O856        O  0.71979519  0.80801312  0.36246058    -0.38600
O857        O  0.59422459  0.71289354  0.44100923    -0.39400
O858        O  0.62630144  0.66496367  0.46605290    -0.39400
C859        C  0.88905696  0.89019375  0.53460116    -0.11700
C860        C  0.91343188  0.89318864  0.01384890     0.05300
C861        C  0.91777486  0.85875454  0.98456845    -0.07000
C862        C  0.90314320  0.81070408  0.98217687    -0.07700
C863        C  0.88343897  0.79679918  0.00829981    -0.02300
C864        C  0.87387855  0.84318214  0.53347279     0.04500
N865        N  0.85408436  0.83548563  0.56127927     0.67000
H866        H  0.88651232  0.91738381  0.55703499     0.15900
H867        H  0.90695682  0.78461231  0.95951358     0.15700
N868        N  0.93636928  0.87331850  0.95657042     0.74700
O869        O  0.86273607  0.82281665  0.59212325    -0.38700
O870        O  0.83561397  0.84766295  0.05954429    -0.38600
O871        O  0.95256064  0.87501842  0.44934531    -0.39400
O872        O  0.92895650  0.90750503  0.93386742    -0.39400
C873        C  0.83542313  0.62184692  0.08661346    -0.11700
C874        C  0.82423204  0.65922704  0.06292165     0.05300
C875        C  0.79807162  0.68106645  0.07012589    -0.07000
C876        C  0.78315237  0.66421526  0.09984826    -0.07700
C877        C  0.79400989  0.62674633  0.12358810    -0.02300
C878        C  0.82057514  0.60561655  0.11706281     0.04500
N879        N  0.83238843  0.56663761  0.14014501     0.67000
H880        H  0.85559202  0.60504662  0.08133803     0.15900
H881        H  0.76297282  0.68131061  0.10476318     0.15700
N882        N  0.78673677  0.72200473  0.04820916     0.74700
O883        O  0.83073379  0.51836008  0.13119589    -0.38700
O884        O  0.85056096  0.58082436  0.16271800    -0.38600
O885        O  0.76806047  0.71043064  0.02567285    -0.39400
O886        O  0.78959862  0.76963590  0.05818027    -0.39400
C887        C  0.79011187  0.68393113  0.43246660    -0.11700
C888        C  0.81890833  0.68006973  0.43150809     0.05300
C889        C  0.83168934  0.66275397  0.39953116    -0.07000
C890        C  0.81534454  0.64788515  0.36978608    -0.07700
C891        C  0.78636216  0.64999022  0.37131404    -0.02300
C892        C  0.77381706  0.66922670  0.40306961     0.04500
N893        N  0.74462746  0.67637607  0.40574930     0.67000
H894        H  0.78006507  0.69855063  0.45650542     0.15900
H895        H  0.82538755  0.63323262  0.34574938     0.15700
N896        N  0.86100468  0.65820924  0.39703490     0.74700
O897        O  0.73037581  0.64104690  0.42079121    -0.38700
O898        O  0.73514085  0.72281275  0.40409432    -0.38600
O899        O  0.87187277  0.61298676  0.39995410    -0.39400
O900        O  0.87433587  0.69457806  0.38169380    -0.39400
C901        C  0.86131906  0.75610773  0.50122739     0.03700
C902        C  0.85695259  0.73046828  0.96929268    -0.12500
C903        C  0.83882620  0.68685251  0.96573804     0.01200
C904        C  0.83023414  0.66030499  0.99678630    -0.11000
C905        C  0.83605357  0.68468528  0.53011664     0.03700
C906        C  0.85473833  0.72686550  0.53208648    -0.10400
H907        H  0.86167193  0.75371001  0.94573820     0.09300
H908        H  0.81453310  0.62964020  0.99473267     0.06800
H909        H  0.86290431  0.73812407  0.55808515     0.06700
C910        C  0.61340541  0.85073717  0.50138208     0.03700
C911        C  0.63156679  0.83842139  0.96198190    -0.12500
C912        C  0.65244924  0.80024050  0.96281978     0.01200
C913        C  0.66304915  0.78320327  0.99583172    -0.11000
C914        C  0.64588414  0.79002656  0.52906256     0.03700
C915        C  0.62534141  0.82848544  0.53220550    -0.10400
H916        H  0.62375349  0.85206630  0.93634958     0.09300
H917        H  0.67873473  0.75257021  0.99643407     0.06800
H918        H  0.61757766  0.83896498  0.55857523     0.06700
C919        C  0.80536694  0.27463044  0.49360090     0.03700
C920        C  0.79739790  0.28793773  0.96705830    -0.12500
C921        C  0.77709541  0.32752307  0.96654005     0.01200
C922        C  0.76645928  0.34641837  0.99920860    -0.11000
C923        C  0.77219695  0.32459804  0.52888815     0.03700
C924        C  0.79413095  0.28895519  0.52698415    -0.10400
H925        H  0.80744524  0.27746098  0.94212316     0.09300
H926        H  0.75201861  0.37923571  0.99925524     0.06800
H927        H  0.80308522  0.27441677  0.55168273     0.06700
N928        N  0.96932979  0.98812425  0.50859454    -0.36000
N929        N  0.50235601  0.08199297  0.51053296    -0.56600
N930        N  0.95265919  0.14298571  0.49402694    -0.36000
N931        N  0.91898387  0.04943419  0.49758329    -0.56600
C932        C  0.99380006  0.96867336  0.52029440     0.27500
C933        C  0.94987915  0.95216660  0.51746909     0.27500
C934        C  0.97193293  0.18029039  0.48697719     0.27500
C935        C  0.92785372  0.16362857  0.48448934     0.27500
C936        C  0.52396035  0.04823215  0.51161663     0.36200
C937        C  0.51256694  0.12965431  0.50113961     0.36200
C938        C  0.90718068  0.00144986  0.50135586     0.36200
C939        C  0.89816963  0.08464753  0.49513705     0.36200
C940        C  0.98971196  0.92060178  0.53731032    -0.21300
C941        C  0.96197228  0.91003123  0.53536305    -0.21300
C942        C  0.95923910  0.22508509  0.47310860    -0.21300
C943        C  0.93151253  0.21449980  0.47141295    -0.21300
C944        C  0.54801014  0.07447715  0.50249638    -0.22400
C945        C  0.54101000  0.12647029  0.49729083    -0.22400
C946        C  0.87864963  0.00596713  0.50100052    -0.22400
C947        C  0.87297311  0.05896870  0.49836218    -0.22400
C948        C  0.52210047  0.99452491  0.52172623    -0.17700
C949        C  0.92170767  0.95427948  0.50803651    -0.17700
C950        C  0.90169590  0.13916951  0.48846074    -0.17700
C951        C  0.49656255  0.17503256  0.49340638    -0.17700
H952        H  0.51165690  0.90111689  0.56231971     0.15200
H953        H  0.95184844  0.87496885  0.54560321     0.15200
H954        H  0.96898484  0.26157560  0.46465254     0.15200
H955        H  0.91580122  0.24128240  0.46153326     0.15200
H956        H  0.56848838  0.05821462  0.49951948     0.13500
H957        H  0.55526365  0.15742225  0.48969570     0.13500
H958        H  0.86343816  0.97483859  0.50395912     0.13500
H959        H  0.85256025  0.07624814  0.49865643     0.13500
H960        H  0.96652742  0.01959585  0.49102634     0.26700
H961        H  0.95606057  0.10813801  0.50800904     0.26700
C962        C  0.56375351  0.36516901  0.49095537     0.03700
C963        C  0.57465130  0.38292497  0.52445691    -0.12500
C964        C  0.59357739  0.42533845  0.52622371     0.01200
C965        C  0.59337835  0.47224770  0.99609601    -0.11000
C966        C  0.58788316  0.45028358  0.96228157     0.03700
C967        C  0.57036562  0.40603978  0.95958272    -0.10400
H968        H  0.56969058  0.36209612  0.54891894     0.09300
H969        H  0.60620418  0.50740290  0.99834226     0.06800
H970        H  0.56416930  0.39281472  0.93318977     0.06700
O971        O  0.78319788  0.62937349  0.80914187    -0.74700
O972        O  0.74998771  0.60452855  0.84885050    -0.53600
C973        C  0.77340232  0.62555913  0.84122784     0.79000
O974        O  0.67936634  0.68781820  0.68264964    -0.59300
O975        O  0.69418912  0.62450221  0.64324673    -0.52400
C976        C  0.68225272  0.66848404  0.65072510     0.71000
O977        O  0.68283712  0.69839845  0.80517445    -0.73900
O978        O  0.69495905  0.63608997  0.84646221    -0.54400
C979        C  0.68525344  0.68146670  0.83771534     0.77000
O980        O  0.78840837  0.61697416  0.68760586    -0.59000
O981        O  0.75518725  0.59107858  0.64742595    -0.52100
C982        C  0.77916894  0.60980774  0.65543520     0.73600
Zr983      Zr  0.76822035  0.60803436  0.74739076     2.54700
O984        O  0.78484285  0.69912184  0.74546342    -0.79600
O985        O  0.81491712  0.57217429  0.74927059    -0.93000
Zr986      Zr  0.69059706  0.66200698  0.74434503     2.64700
O987        O  0.71075968  0.75043243  0.74150896    -0.98000
O988        O  0.64349676  0.69562166  0.74355841    -0.80000
O989        O  0.72914601  0.63798614  0.78013143    -0.83400
O990        O  0.73025946  0.63620740  0.71101137    -2.18100
O991        O  0.74705103  0.42191437  0.68912291    -0.66800
O992        O  0.73450550  0.48433411  0.64810493    -0.51300
C993        C  0.74430118  0.43911962  0.65683107     0.72000
O994        O  0.64158464  0.50270773  0.80430274    -0.59700
O995        O  0.67442109  0.52964087  0.84451790    -0.51700
C996        C  0.65050786  0.51048438  0.83658765     0.73800
O997        O  0.64676694  0.49330459  0.68243190    -0.71100
O998        O  0.67994416  0.51939458  0.64318625    -0.49800
C999        C  0.65674672  0.49744428  0.65040703     0.75200
O1000       O  0.74893393  0.43154629  0.81076145    -0.66400
O1001       O  0.73371851  0.49482744  0.84990497    -0.53600
C1002       C  0.74553496  0.45055892  0.84267876     0.73600
Zr1003     Zr  0.73919090  0.45885750  0.74899268     2.77500
O1004       O  0.72091770  0.36906226  0.75351885    -0.97200
O1005       O  0.78663915  0.42731934  0.74697175    -0.78000
Zr1006     Zr  0.66181923  0.51348453  0.74456383     2.70100
O1007       O  0.64804786  0.42063901  0.74733158    -0.79200
O1008       O  0.61463801  0.54549038  0.73814892    -0.98300
Zr1009     Zr  0.71391814  0.56344857  0.81323171     2.21500
Zr1010     Zr  0.71580663  0.55817144  0.67982428     2.11100
O1011       O  0.70081539  0.48274012  0.71247274    -2.47000
O1012       O  0.69944928  0.48587116  0.78153744    -0.79000
O1013       O  0.75474063  0.53145029  0.71392226    -0.71200
O1014       O  0.67462462  0.58976960  0.77892134    -2.32200
O1015       O  0.75390943  0.53464750  0.78212937    -2.28400
O1016       O  0.68095199  0.58380957  0.71595482    -0.73000
H1017       H  0.73567504  0.66383977  0.69473154     0.79000
H1018       H  0.65937997  0.60117363  0.79407367     0.80100
H1019       H  0.69570210  0.45368529  0.69707078     0.82300
H1020       H  0.76874766  0.52549648  0.79858197     0.79900
H1021       H  0.64548634  0.73426132  0.74781290     0.43000
H1022       H  0.60300525  0.51547722  0.74614903     0.42000
H1023       H  0.65566108  0.40784256  0.77045402     0.41600
H1024       H  0.70804261  0.37053521  0.77407452     0.39600
H1025       H  0.78545480  0.38965188  0.75415266     0.42700
H1026       H  0.81234985  0.53332729  0.74695347     0.37500
H1027       H  0.76867871  0.71995654  0.73737686     0.43600
H1028       H  0.69501149  0.77475107  0.74538587     0.40000
H1029       H  0.70876258  0.36476991  0.73219247     0.44900
H1030       H  0.82144434  0.57762623  0.77428272     0.43700
H1031       H  0.72198104  0.75372692  0.76376500     0.43800
H1032       H  0.61267443  0.57258571  0.75734761     0.44100
C1033       C  0.61165899  0.47229542  0.62175049    -0.11700
C1034       C  0.64059672  0.47550840  0.61958119     0.05300
C1035       C  0.65352835  0.45808996  0.58755807    -0.07000
C1036       C  0.63752564  0.44041535  0.55861665    -0.07700
C1037       C  0.60861496  0.43966812  0.55996840    -0.02300
C1038       C  0.59560329  0.45456520  0.59240638     0.04500
N1039       N  0.56626358  0.45354387  0.59598603     0.67000
H1040       H  0.60130473  0.48483857  0.64609388     0.16900
H1041       H  0.64798109  0.42706842  0.53455843     0.15700
N1042       N  0.68290297  0.45550037  0.58409089     0.74700
O1043       O  0.55528478  0.41470460  0.61170056    -0.38700
O1044       O  0.55317506  0.49668592  0.59430456    -0.38600
O1045       O  0.69434232  0.41069515  0.58584344    -0.39400
O1046       O  0.69527208  0.49237553  0.56797174    -0.39400
C1047       C  0.64671923  0.48808874  0.90062685    -0.11700
C1048       C  0.63308910  0.49578989  0.86769350     0.05300
C1049       C  0.60400528  0.48990178  0.86635635    -0.07000
C1050       C  0.58956087  0.47637345  0.89760634    -0.07700
C1051       C  0.60343758  0.46864025  0.93040598    -0.02300
C1052       C  0.63249502  0.47483265  0.93158018     0.04500
N1053       N  0.64842794  0.46547029  0.96339391     0.67000
H1054       H  0.66901673  0.49137246  0.90259666     0.15900
H1055       H  0.56730001  0.47203176  0.89621551     0.15700
N1056       N  0.58858076  0.49865616  0.83411718     0.74700
O1057       O  0.66006126  0.42106393  0.96696209    -0.38700
O1058       O  0.65808172  0.50488349  0.98045045    -0.38600
O1059       O  0.58065118  0.45905352  0.81584226    -0.39400
O1060       O  0.57611521  0.54219376  0.83039844    -0.39400
C1061       C  0.53300723  0.24449094  0.95659856    -0.11700
C1062       C  0.51107444  0.22645993  0.49056247     0.05300
C1063       C  0.50957324  0.26394878  0.51850485    -0.07000
C1064       C  0.52587431  0.30983056  0.51730716    -0.07700
C1065       C  0.54458907  0.31832628  0.48894951    -0.02300
C1066       C  0.54863182  0.29101790  0.95768319     0.04500
N1067       N  0.56829382  0.29773940  0.92963196     0.67000
H1068       H  0.53459527  0.21805842  0.93359525     0.15900
H1069       H  0.52424413  0.33826893  0.53912422     0.15700
N1070       N  0.00157843  0.24741820  0.55291825     0.74700
O1071       O  0.59144352  0.27529512  0.93281228    -0.38700
O1072       O  0.55951382  0.30827056  0.89846473    -0.38600
O1073       O  0.01197251  0.21370371  0.57393239    -0.39400
O1074       O  0.97450254  0.27065531  0.06318690    -0.39400
C1075       C  0.87538928  0.21343132  0.51465433    -0.11700
C1076       C  0.87697966  0.17401517  0.48810476     0.05300
C1077       C  0.85865530  0.16135365  0.96988967    -0.07000
C1078       C  0.83498769  0.19333547  0.97126910    -0.07700
C1079       C  0.83064445  0.24149573  0.49178891    -0.02300
C1080       C  0.85315577  0.24834928  0.51595414     0.04500
N1081       N  0.85509485  0.29269122  0.54003393     0.67000
H1082       H  0.89214198  0.21829633  0.53390186     0.15900
H1083       H  0.82075798  0.19203438  0.94871835     0.15700
N1084       N  0.86561131  0.13431417  0.93726283     0.74700
O1085       O  0.85161967  0.28520064  0.57320440    -0.38700
O1086       O  0.86432551  0.31086950  0.05097495    -0.38600
O1087       O  0.84120823  0.09457388  0.43072067    -0.39400
O1088       O  0.88226458  0.15590969  0.91585291    -0.39400
C1089       C  0.76840127  0.43133195  0.59982011    -0.11700
C1090       C  0.75347215  0.40621113  0.62678709     0.05300
C1091       C  0.74552195  0.35282340  0.62259742    -0.07000
C1092       C  0.75209211  0.32567087  0.59067611    -0.07700
C1093       C  0.76627241  0.35186191  0.56306842    -0.02300
C1094       C  0.77489640  0.40486415  0.56823652     0.04500
N1095       N  0.79027638  0.43282417  0.54173815     0.67000
H1096       H  0.77472310  0.47241978  0.60305022     0.15900
H1097       H  0.74546943  0.28491181  0.58695975     0.15700
N1098       N  0.72928370  0.32736218  0.64942444     0.74700
O1099       O  0.77769127  0.46565304  0.52216651    -0.38700
O1100       O  0.81595527  0.43849558  0.54647623    -0.38600
O1101       O  0.70404669  0.33904926  0.65229330    -0.39400
O1102       O  0.74132189  0.30439577  0.67512903    -0.39400
C1103       C  0.77385542  0.41206168  0.93395546    -0.11700
C1104       C  0.77064519  0.35682800  0.93312631     0.05300
C1105       C  0.76109655  0.33221279  0.90112068    -0.07000
C1106       C  0.75367405  0.36349274  0.87161581    -0.07700
C1107       C  0.75560548  0.41900019  0.87330386    -0.02300
C1108       C  0.76645740  0.44321337  0.90469942     0.04500
N1109       N  0.77104595  0.49914533  0.90716969     0.67000
H1110       H  0.78223586  0.43142849  0.95770472     0.15900
H1111       H  0.74559823  0.34425415  0.84760000     0.15700
N1112       N  0.75786923  0.27602432  0.89824919     0.74700
O1113       O  0.75350426  0.52746634  0.92323957    -0.38700
O1114       O  0.79533724  0.51659254  0.90370400    -0.38600
O1115       O  0.73391283  0.25649047  0.90038362    -0.39400
O1116       O  0.77643335  0.24959530  0.88265564    -0.39400
C1117       C  0.59345206  0.93107327  0.52922103    -0.11700
C1118       C  0.59039703  0.88828629  0.50538930     0.05300
C1119       C  0.57221986  0.88422628  0.97249143    -0.07000
C1120       C  0.54966709  0.91863380  0.97573109    -0.07700
C1121       C  0.54633831  0.95887461  0.51711232    -0.02300
C1122       C  0.57149944  0.96530296  0.53619597     0.04500
N1123       N  0.57472488  0.00342857  0.56449990     0.67000
H1124       H  0.61277414  0.93673983  0.54365085     0.15900
H1125       H  0.53166665  0.91240306  0.95871766     0.15700
N1126       N  0.57025922  0.83968602  0.94851599     0.74700
O1127       O  0.56941352  0.98902289  0.59612470    -0.38700
O1128       O  0.59139624  0.04139023  0.56018109    -0.38600
O1129       O  0.57005540  0.79316819  0.96084912    -0.39400
O1130       O  0.57184480  0.84656034  0.91502780    -0.39400
C1131       C  0.67619468  0.75461363  0.62011865    -0.11700
C1132       C  0.67169811  0.69964021  0.62030237     0.05300
C1133       C  0.65823861  0.67535422  0.59067551    -0.07000
C1134       C  0.64997447  0.70596117  0.56154266    -0.07700
C1135       C  0.65505762  0.76054576  0.56093890    -0.02300
C1136       C  0.66808947  0.78521388  0.59066189     0.04500
N1137       N  0.67447401  0.84054246  0.59071383     0.67000
H1138       H  0.68681987  0.77368208  0.64246993     0.15900
H1139       H  0.63937244  0.68686834  0.53917724     0.15700
N1140       N  0.65221106  0.61991356  0.58981909     0.74700
O1141       O  0.65972030  0.87177923  0.60894174    -0.38700
O1142       O  0.69839342  0.85511738  0.58170973    -0.38600
O1143       O  0.62815967  0.60469262  0.59769907    -0.39400
O1144       O  0.66715065  0.59003450  0.57086281    -0.39400
C1145       C  0.67367377  0.79698471  0.90224018    -0.11700
C1146       C  0.65966754  0.77118978  0.92985283     0.05300
C1147       C  0.65302602  0.71701016  0.92634524    -0.07000
C1148       C  0.66101717  0.68919305  0.89560949    -0.07700
C1149       C  0.67543618  0.71459113  0.86787357    -0.02300
C1150       C  0.68174311  0.76914254  0.87134358     0.04500
N1151       N  0.69789080  0.79613024  0.84518339     0.67000
H1152       H  0.67904411  0.83855212  0.90515438     0.15900
H1153       H  0.65599044  0.64734067  0.89344297     0.15700
N1154       N  0.63854515  0.68973758  0.95415234     0.74700
O1155       O  0.68565445  0.82341951  0.82171172    -0.38700
O1156       O  0.72293733  0.80598291  0.85216687    -0.38600
O1157       O  0.61426897  0.70337344  0.96218076    -0.39400
O1158       O  0.65153087  0.65840970  0.97442628    -0.39400
C1159       C  0.89504366  0.87879984  0.04069910    -0.11700
C1160       C  0.90648817  0.90369247  0.50656062     0.05300
C1161       C  0.90982912  0.86899019  0.47730149    -0.07000
C1162       C  0.89567721  0.82057167  0.47657944    -0.07700
C1163       C  0.87722917  0.80689136  0.50425175    -0.02300
C1164       C  0.87951630  0.83220312  0.03789574     0.04500
N1165       N  0.85843851  0.82450967  0.06405215     0.67000
H1166       H  0.89166655  0.90547407  0.06321834     0.15900
H1167       H  0.89899440  0.79391074  0.45408513     0.15700
N1168       N  0.92691570  0.88363968  0.44773411     0.74700
O1169       O  0.86554211  0.81174797  0.09552816    -0.38700
O1170       O  0.83119357  0.85905377  0.55875947    -0.38600
O1171       O  0.96165762  0.86202382  0.95957861    -0.39400
O1172       O  0.91773644  0.91592915  0.42482701    -0.39400
C1173       C  0.83700687  0.63593805  0.58837056    -0.11700
C1174       C  0.82242935  0.66595145  0.56298647     0.05300
C1175       C  0.79459658  0.67890497  0.56934197    -0.07000
C1176       C  0.78142774  0.65967111  0.59964939    -0.07700
C1177       C  0.79555033  0.62879693  0.62485416    -0.02300
C1178       C  0.82384668  0.61755184  0.61949921     0.04500
N1179       N  0.83929426  0.58655289  0.64449352     0.67000
H1180       H  0.85854622  0.62650201  0.58387237     0.15900
H1181       H  0.75994645  0.67002732  0.60390407     0.15700
N1182       N  0.77969757  0.71384724  0.54624033     0.74700
O1183       O  0.84386037  0.53842443  0.63720064    -0.38700
O1184       O  0.85472118  0.61003650  0.66699524    -0.38600
O1185       O  0.76141136  0.69481883  0.52552946    -0.39400
O1186       O  0.77887489  0.76254244  0.55422446    -0.39400
C1187       C  0.79476736  0.68223524  0.93222308    -0.11700
C1188       C  0.82350287  0.67584551  0.93171116     0.05300
C1189       C  0.83595158  0.65624461  0.90007299    -0.07000
C1190       C  0.81935662  0.64134677  0.87050078    -0.07700
C1191       C  0.79042866  0.64576713  0.87173405    -0.02300
C1192       C  0.77825465  0.66770498  0.90287845     0.04500
N1193       N  0.74931329  0.67819680  0.90473890     0.67000
H1194       H  0.78493850  0.69853312  0.95592067     0.15900
H1195       H  0.82913848  0.62482726  0.84683001     0.15700
N1196       N  0.86515590  0.64957803  0.89768954     0.74700
O1197       O  0.73398337  0.64660303  0.92166959    -0.38700
O1198       O  0.74112969  0.72502801  0.89975037    -0.38600
O1199       O  0.87513593  0.60366347  0.90098196    -0.39400
O1200       O  0.87914151  0.68459586  0.88190153    -0.39400
loop_ 
_geom_bond_atom_site_label_1 
_geom_bond_atom_site_label_2 
_geom_bond_distance 
_geom_bond_site_symmetry_2 
_ccdc_geom_bond_type 
C1            C6   1.405       .  A
C1          C302   1.413   1_554  A
C1          C263   1.490       .  S
C2            C3   1.400       .  A
C2          C301   1.411       .  A
C2            H7   1.083       .  S
C3            C4   1.402       .  A
C3          C288   1.477       .  S
C4          C305   1.397       .  A
C4            H8   1.085       .  S
C5            C6   1.396       .  A
C5          C304   1.394   1_554  A
C5          C274   1.477       .  S
C6            H9   1.079       .  S
C10          C15   1.405   1_556  A
C10         C311   1.404       .  A
C10         C218   1.478   1_556  S
C11          C12   1.393       .  A
C11         C310   1.402       .  A
C11          H16   1.083       .  S
C12          C13   1.398       .  A
C12         C246   1.466       .  S
C13         C314   1.401       .  A
C13          H17   1.085       .  S
C14          C15   1.399       .  A
C14         C313   1.404   1_554  A
C14         C235   1.484       .  S
C15          H18   1.083       .  S
C19          C24   1.413       .  A
C19         C320   1.413   1_554  A
C19         C179   1.502   1_554  S
C20          C21   1.407       .  A
C20         C319   1.414       .  A
C20          H25   1.081       .  S
C21          C22   1.407       .  A
C21         C204   1.495       .  S
C22         C323   1.397       .  A
C22          H26   1.084       .  S
C23          C24   1.400       .  A
C23         C322   1.399       .  A
C23         C193   1.484       .  S
C24          H27   1.078       .  S
N28          C33   1.350       .  A
N28          C32   1.355       .  A
N28          H60   1.039   1_564  S
N29          C36   1.351       .  A
N29          C37   1.348       .  A
N30          C35   1.353       .  A
N30          C34   1.348       .  A
N30          H61   1.037   1_556  S
N31          C38   1.344   1_556  A
N31          C39   1.347       .  A
C32          C40   1.386       .  A
C32         C648   1.414       .  A
C33          C49   1.410       .  A
C33          C41   1.387       .  A
C34          C42   1.388       .  A
C34         C651   1.409       .  A
C35          C50   1.409       .  A
C35          C43   1.386       .  A
C36          C48   1.410   1_545  A
C36          C44   1.383       .  A
C37          C51   1.415   1_455  A
C37          C45   1.388       .  A
C38          C46   1.389       .  A
C38          C49   1.409   1_545  A
C39          C47   1.384   1_556  A
C39          C50   1.406       .  A
C40          C41   1.372       .  A
C40         H652   1.082       .  S
C41          H53   1.083       .  S
C42          C43   1.370       .  A
C42          H54   1.082       .  S
C43          H55   1.083       .  S
C44          C45   1.369       .  A
C44          H56   1.080       .  S
C45          H57   1.081       .  S
C46          C47   1.369       .  A
C46          H58   1.081   1_545  S
C47          H59   1.082       .  S
C48         C632   1.413   1_455  A
C48         C221   1.490       .  S
C49         C260   1.470       .  S
C50         C176   1.479       .  S
C51         C634   1.413   1_554  A
C51         C162   1.479   1_655  S
H52         C640   1.082   1_455  S
C62          C63   1.416   1_556  A
C62         C367   1.410       .  A
C62         C165   1.503       .  S
C63          C64   1.404       .  A
C63          H68   1.082       .  S
C64         C365   1.401       .  A
C64         C137   1.478       .  S
C65          C66   1.392       .  A
C65         C364   1.396       .  A
C65          H69   1.085       .  S
C66          C67   1.399       .  A
C66         C151   1.472       .  S
C67         C362   1.410       .  A
C67          H70   1.077       .  S
O71         Zr83   2.448       .  S
O71          C73   1.289       .  A
O72        Zr109   2.404       .  S
O72          C73   1.283       .  A
C73         C291   1.477       .  S
O74         Zr86   2.455       .  S
O74          C76   1.292       .  A
O75        Zr110   2.409       .  S
O75          C76   1.283       .  A
C76         C232   1.482       .  S
O77         Zr86   2.466       .  S
O77          C79   1.291       .  A
O78        Zr109   2.404       .  S
O78          C79   1.283       .  A
C79         C249   1.475       .  S
O80         Zr83   2.457       .  S
O80          C82   1.288       .  A
O81        Zr110   2.394       .  S
O81          C82   1.283       .  A
C82         C277   1.476       .  S
Zr83         O84   2.434       .  S
Zr83         O85   2.437       .  S
Zr83         O89   2.382       .  S
Zr83         O90   2.378       .  S
Zr83        O113   2.377       .  S
Zr83        O115   2.381       .  S
O84         H127   0.990       .  S
O85         H126   0.990       .  S
O85         H130   0.990       .  S
Zr86         O87   2.434       .  S
Zr86         O88   2.433       .  S
Zr86         O90   2.380       .  S
Zr86         O89   2.378       .  S
Zr86        O114   2.370       .  S
Zr86        O116   2.374       .  S
O87         H128   0.990       .  S
O87         H131   0.990       .  S
O88         H121   0.990       .  S
O89        Zr109   2.376       .  S
O90        Zr110   2.376       .  S
O90         H117   0.966       .  S
O91        Zr103   2.453       .  S
O91          C93   1.289       .  A
O92        Zr110   2.389       .  S
O92          C93   1.281       .  A
C93         C190   1.468       .  S
O94        Zr106   2.433       .  S
O94          C96   1.285       .  A
O95        Zr109   2.411       .  S
O95          C96   1.285       .  A
C96         C148   1.465       .  S
O97        Zr106   2.452       .  S
O97          C99   1.290       .  A
O98        Zr110   2.393       .  S
O98          C99   1.280       .  A
C99         C134   1.473       .  S
O100       Zr103   2.450       .  S
O100        C102   1.290       .  A
O101       Zr109   2.407       .  S
O101        C102   1.282       .  A
C102        C207   1.488       .  S
Zr103       O104   2.436       .  S
Zr103       O105   2.435       .  S
Zr103       O111   2.368       .  S
Zr103       O112   2.371       .  S
Zr103       O115   2.373       .  S
Zr103       O113   2.378       .  S
O104        H124   0.990       .  S
O104        H129   0.990       .  S
O105        H125   0.990       .  S
Zr106       O107   2.435       .  S
Zr106       O108   2.437       .  S
Zr106       O112   2.379       .  S
Zr106       O111   2.365       .  S
Zr106       O116   2.366       .  S
Zr106       O114   2.373       .  S
O107        H123   0.990       .  S
O108        H122   0.990       .  S
O108        H132   0.990       .  S
Zr109       O112   2.374       .  S
Zr109       O114   2.374       .  S
Zr109       O115   2.382       .  S
Zr110       O111   2.371       .  S
Zr110       O113   2.371       .  S
Zr110       O116   2.369       .  S
O111        H119   0.975       .  S
O114        H118   0.967       .  S
O115        H120   0.971       .  S
C133        C134   1.403       .  A
C133        C138   1.401       .  A
C133        H140   1.084       .  S
C134        C135   1.413       .  A
C135        C136   1.390       .  A
C135        N142   1.429       .  S
C136        C137   1.400       .  A
C136        H141   1.084       .  S
C137        C138   1.412       .  A
C138        N139   1.428       .  S
N139        O143   1.262       .  A
N139        O144   1.262       .  A
N142        O146   1.262       .  A
N142        O145   1.261       .  A
C147        C148   1.398       .  A
C147        C152   1.390       .  A
C147        H154   1.085       .  S
C148        C149   1.411       .  A
C149        C150   1.401       .  A
C149        N156   1.428       .  S
C150        C151   1.400       .  A
C150        H155   1.084       .  S
C151        C152   1.412       .  A
C152        N153   1.429       .  S
N153        O157   1.262       .  A
N153        O158   1.262       .  A
N156        O160   1.262       .  A
N156        O159   1.262       .  A
C161        C166   1.396       .  A
C161        C462   1.390       .  A
C161        H168   1.084       .  S
C162        C163   1.402       .  A
C162        C461   1.391   1_554  A
C163        C164   1.401       .  A
C163        N770   1.430   1_455  S
C164        C165   1.414   1_554  A
C164        H169   1.082       .  S
C165        C466   1.426       .  A
C166        C465   1.429       .  A
C166        N167   1.427       .  S
N167        O171   1.262       .  A
N167        O172   1.263       .  A
N170        C763   1.431       .  S
N170        O474   1.262       .  A
N170        O173   1.262       .  A
O174        N470   1.262       .  A
C175        C176   1.392   1_554  A
C175        C180   1.393       .  A
C175        H182   1.085       .  S
C176        C477   1.403       .  A
C177        C178   1.404       .  A
C177        C476   1.401       .  A
C177        N184   1.430       .  S
C178        C479   1.417       .  A
C178        H183   1.083       .  S
C179        C180   1.423   1_556  A
C179        C478   1.416       .  A
C180        N181   1.429       .  S
N181        O185   1.262       .  A
N181        O486   1.262       .  A
N184        O188   1.262       .  A
N184        O487   1.262       .  A
O186        N481   1.262       .  A
O187        N484   1.261       .  A
C189        C190   1.395       .  A
C189        C194   1.389       .  A
C189        H196   1.085       .  S
C190        C191   1.408       .  A
C191        C192   1.411       .  A
C191        N198   1.430       .  S
C192        C193   1.410       .  A
C192        H197   1.083       .  S
C193        C194   1.412       .  A
C194        N195   1.427       .  S
N195        O199   1.261       .  A
N195        O200   1.262       .  A
N198        O202   1.262       .  A
N198        O201   1.262       .  A
C203        C204   1.405       .  A
C203        C208   1.394       .  A
C203        H210   1.080       .  S
C204        C205   1.415       .  A
C205        C206   1.401       .  A
C205        N212   1.428       .  S
C206        C207   1.407       .  A
C206        H211   1.084       .  S
C207        C208   1.415       .  A
C208        N209   1.429       .  S
N209        O213   1.262       .  A
N209        O214   1.262       .  A
N212        O216   1.262       .  A
N212        O215   1.262       .  A
C217        C218   1.401       .  A
C217        C222   1.395       .  A
C217        H224   1.084       .  S
C218        C519   1.410   1_554  A
C219        C220   1.398       .  A
C219        C518   1.408       .  A
C219        N226   1.432       .  S
C220        C521   1.409       .  A
C220        H225   1.084       .  S
C221        C222   1.413       .  A
C221        C520   1.406   1_554  A
C222        N223   1.428       .  S
N223        O227   1.262       .  A
N223        O228   1.262   1_565  A
N226        O230   1.262       .  A
N226        O229   1.263       .  A
C231        C232   1.403       .  A
C231        C236   1.399       .  A
C231        H238   1.084       .  S
C232        C233   1.415       .  A
C233        C234   1.397       .  A
C233        N240   1.428       .  S
C234        C235   1.401       .  A
C234        H239   1.084       .  S
C235        C236   1.414       .  A
C236        N237   1.428       .  S
N237        O241   1.262       .  A
N237        O242   1.262       .  A
N240        O244   1.262       .  A
N240        O243   1.262       .  A
C245        C246   1.397       .  A
C245        C250   1.402       .  A
C245        H252   1.084       .  S
C246        C247   1.403       .  A
C247        C248   1.395       .  A
C247        N254   1.430       .  S
C248        C249   1.406       .  A
C248        H253   1.085       .  S
C249        C250   1.414       .  A
C250        N251   1.427       .  S
N251        O255   1.262       .  A
N251        O256   1.262       .  A
N254        O258   1.261       .  A
N254        O257   1.262       .  A
C259        C264   1.395       .  A
C259        C560   1.392       .  A
C259        H266   1.084       .  S
C260        C261   1.403   1_554  A
C260        C559   1.390       .  A
C261        C262   1.396       .  A
C261        N268   1.431       .  S
C262        C263   1.410   1_556  A
C262        H267   1.083       .  S
C263        C564   1.424       .  A
C264        C563   1.422       .  A
C264        N265   1.428       .  S
N265        O269   1.262       .  A
N265        O570   1.262       .  A
N268        O272   1.262       .  A
N268        O571   1.262       .  A
O270        N565   1.262       .  A
O271        N568   1.262       .  A
C273        C274   1.404       .  A
C273        C278   1.404       .  A
C273        H280   1.084       .  S
C274        C275   1.411       .  A
C275        C276   1.387       .  A
C275        N282   1.430       .  S
C276        C277   1.402       .  A
C276        H281   1.085       .  S
C277        C278   1.413       .  A
C278        N279   1.427       .  S
N279        O283   1.262       .  A
N279        O284   1.262       .  A
N282        O286   1.262       .  A
N282        O285   1.262       .  A
C287        C288   1.399       .  A
C287        C292   1.390       .  A
C287        H294   1.084       .  S
C288        C289   1.411       .  A
C289        C290   1.403       .  A
C289        N296   1.428       .  S
C290        C291   1.406       .  A
C290        H295   1.084       .  S
C291        C292   1.413       .  A
C292        N293   1.429       .  S
N293        O297   1.262       .  A
N293        O298   1.262       .  A
N296        O300   1.262       .  A
N296        O299   1.262       .  A
C301        C306   1.407       .  A
C301        C563   1.490       .  S
C302        C303   1.402       .  A
C302        H307   1.082       .  S
C303        C304   1.403       .  A
C303        C588   1.478       .  S
C304        H308   1.084       .  S
C305        C306   1.399       .  A
C305        C574   1.478       .  S
C306        H309   1.081       .  S
C310        C315   1.404       .  A
C310        C518   1.471       .  S
C311        C312   1.396       .  A
C311        H316   1.082       .  S
C312        C313   1.401       .  A
C312        C546   1.471       .  S
C313        H317   1.084       .  S
C314        C315   1.398       .  A
C314        C535   1.473       .  S
C315        H318   1.084       .  S
C319        C324   1.411       .  A
C319        C479   1.500       .  S
C320        C321   1.404       .  A
C320        H325   1.082       .  S
C321        C322   1.406   1_556  A
C321        C504   1.484       .  S
C322        H326   1.085       .  S
C323        C324   1.397       .  A
C323        C493   1.482       .  S
C324        H327   1.077       .  S
N328        C333   1.351       .  A
N328        C332   1.352       .  A
N328        H360   1.039   1_565  S
N329        C336   1.351       .  A
N329        C337   1.346       .  A
N330        C335   1.352       .  A
N330        C334   1.351       .  A
N330        H361   1.036       .  S
N331        C338   1.345   1_545  A
N331        C339   1.345       .  A
C332        C340   1.386       .  A
C332        C948   1.411       .  A
C333        C349   1.408       .  A
C333        C341   1.386       .  A
C334        C342   1.387       .  A
C334        C951   1.412       .  A
C335        C350   1.411       .  A
C335        C343   1.386       .  A
C336        C348   1.412   1_545  A
C336        C344   1.384       .  A
C337        C351   1.412       .  A
C337        C345   1.388       .  A
C338        C346   1.387       .  A
C338        C349   1.407       .  A
C339        C347   1.385       .  A
C339        C350   1.406       .  A
C340        C341   1.372       .  A
C340        H952   1.082       .  S
C341        H353   1.082       .  S
C342        C343   1.371       .  A
C342        H354   1.082       .  S
C343        H355   1.083       .  S
C344        C345   1.373       .  A
C344        H356   1.081       .  S
C345        H357   1.082       .  S
C346        C347   1.372   1_565  A
C346        H358   1.081       .  S
C347        H359   1.082       .  S
C348        C932   1.410   1_455  A
C348        C521   1.491       .  S
C349        C560   1.474       .  S
C350        C476   1.473       .  S
C351        C934   1.414   1_455  A
C351        C462   1.475       .  S
H352        C940   1.082   1_455  S
C362        C363   1.418       .  A
C362        C465   1.504       .  S
C363        C364   1.401       .  A
C363        H368   1.082       .  S
C364        C437   1.475       .  S
C365        C366   1.394   1_554  A
C365        H369   1.085       .  S
C366        C367   1.399       .  A
C366        C451   1.478       .  S
C367        H370   1.078       .  S
O371       Zr383   2.447       .  S
O371        C373   1.290       .  A
O372       Zr409   2.397       .  S
O372        C373   1.282       .  A
C373        C591   1.479       .  S
O374       Zr386   2.440       .  S
O374        C376   1.288       .  A
O375       Zr410   2.416       .  S
O375        C376   1.284       .  A
C376        C532   1.476       .  S
O377       Zr386   2.464       .  S
O377        C379   1.290       .  A
O378       Zr409   2.412       .  S
O378        C379   1.285       .  A
C379        C549   1.479       .  S
O380       Zr383   2.454       .  S
O380        C382   1.288       .  A
O381       Zr410   2.406       .  S
O381        C382   1.285       .  A
C382        C577   1.479       .  S
Zr383       O384   2.434       .  S
Zr383       O385   2.437       .  S
Zr383       O389   2.379       .  S
Zr383       O390   2.381       .  S
Zr383       O413   2.373       .  S
Zr383       O415   2.375       .  S
O384        H427   0.990       .  S
O385        H426   0.990       .  S
O385        H430   0.990       .  S
Zr386       O387   2.437       .  S
Zr386       O388   2.433       .  S
Zr386       O390   2.383       .  S
Zr386       O389   2.367       .  S
Zr386       O414   2.377       .  S
Zr386       O416   2.382       .  S
O387        H428   0.990       .  S
O387        H431   0.990       .  S
O388        H421   0.990       .  S
O389       Zr409   2.367       .  S
O390       Zr410   2.374       .  S
O390        H417   0.969       .  S
O391       Zr403   2.449       .  S
O391        C393   1.288       .  A
O392       Zr410   2.390       .  S
O392        C393   1.281       .  A
C393        C490   1.466       .  S
O394       Zr406   2.460       .  S
O394        C396   1.290       .  A
O395       Zr409   2.397       .  S
O395        C396   1.283       .  A
C396        C448   1.475       .  S
O397       Zr406   2.471       .  S
O397        C399   1.294       .  A
O398       Zr410   2.388       .  S
O398        C399   1.279       .  A
C399        C434   1.477       .  S
O400       Zr403   2.447       .  S
O400        C402   1.289       .  A
O401       Zr409   2.408       .  S
O401        C402   1.283       .  A
C402        C507   1.480       .  S
Zr403       O404   2.436       .  S
Zr403       O405   2.434       .  S
Zr403       O411   2.364       .  S
Zr403       O412   2.368       .  S
Zr403       O415   2.376       .  S
Zr403       O413   2.380       .  S
O404        H424   0.990       .  S
O404        H429   0.990       .  S
O405        H425   0.990       .  S
Zr406       O407   2.433       .  S
Zr406       O408   2.435       .  S
Zr406       O412   2.379       .  S
Zr406       O411   2.369       .  S
Zr406       O416   2.371       .  S
Zr406       O414   2.379       .  S
O407        H423   0.990       .  S
O408        H422   0.990       .  S
O408        H432   0.990       .  S
Zr409       O412   2.373       .  S
Zr409       O414   2.374       .  S
Zr409       O415   2.378       .  S
Zr410       O411   2.375       .  S
Zr410       O413   2.369       .  S
Zr410       O416   2.374       .  S
O411        H419   0.971       .  S
O414        H418   0.973       .  S
O415        H420   0.975       .  S
C433        C434   1.403       .  A
C433        C438   1.401       .  A
C433        H440   1.084       .  S
C434        C435   1.417       .  A
C435        C436   1.391       .  A
C435        N442   1.429       .  S
C436        C437   1.397       .  A
C436        H441   1.084       .  S
C437        C438   1.410       .  A
C438        N439   1.427       .  S
N439        O443   1.262       .  A
N439        O444   1.262       .  A
N442        O446   1.262       .  A
N442        O445   1.261       .  A
C447        C448   1.402       .  A
C447        C452   1.391       .  A
C447        H454   1.085       .  S
C448        C449   1.411       .  A
C449        C450   1.404       .  A
C449        N456   1.427       .  S
C450        C451   1.403       .  A
C450        H455   1.084       .  S
C451        C452   1.412       .  A
C452        N453   1.430       .  S
N453        O457   1.262       .  A
N453        O458   1.262       .  A
N456        O460   1.262       .  A
N456        O459   1.262       .  A
C461        C466   1.394       .  A
C461        H468   1.084       .  S
C462        C463   1.400       .  A
C463        C464   1.397       .  A
C463       N1070   1.430       .  S
C464        C465   1.414       .  A
C464        H469   1.082       .  S
C466        N467   1.428       .  S
N467        O471   1.262       .  A
N467        O472   1.262       .  A
N470       C1063   1.430       .  S
N470        O473   1.262       .  A
C475        C476   1.390       .  A
C475        C480   1.391       .  A
C475        H482   1.085       .  S
C477        C478   1.404       .  A
C477        N484   1.430       .  S
C478        H483   1.082       .  S
C479        C480   1.424       .  A
C480        N481   1.429       .  S
N481        O485   1.263       .  A
N484        O488   1.262       .  A
C489        C490   1.394       .  A
C489        C494   1.386       .  A
C489        H496   1.085       .  S
C490        C491   1.409       .  A
C491        C492   1.412       .  A
C491        N498   1.431       .  S
C492        C493   1.410       .  A
C492        H497   1.083       .  S
C493        C494   1.412       .  A
C494        N495   1.428       .  S
N495        O499   1.262       .  A
N495        O500   1.262       .  A
N498        O502   1.261       .  A
N498        O501   1.262       .  A
C503        C504   1.399       .  A
C503        C508   1.390       .  A
C503        H510   1.081       .  S
C504        C505   1.414       .  A
C505        C506   1.403       .  A
C505        N512   1.428       .  S
C506        C507   1.405       .  A
C506        H511   1.084       .  S
C507        C508   1.412       .  A
C508        N509   1.427       .  S
N509        O513   1.261       .  A
N509        O514   1.262       .  A
N512        O516   1.262       .  A
N512        O515   1.262       .  A
C517        C518   1.398       .  A
C517        C522   1.395       .  A
C517        H524   1.084       .  S
C519        C520   1.398       .  A
C519        N526   1.430       .  S
C520        H525   1.084       .  S
C521        C522   1.413       .  A
C522        N523   1.427       .  S
N523        O527   1.262       .  A
N523        O528   1.262   1_565  A
N526        O530   1.262       .  A
N526        O529   1.262       .  A
C531        C532   1.405       .  A
C531        C536   1.399       .  A
C531        H538   1.084       .  S
C532        C533   1.413       .  A
C533        C534   1.393       .  A
C533        N540   1.428       .  S
C534        C535   1.399       .  A
C534        H539   1.084       .  S
C535        C536   1.410       .  A
C536        N537   1.429       .  S
N537        O541   1.262       .  A
N537        O542   1.262       .  A
N540        O544   1.262       .  A
N540        O543   1.262       .  A
C545        C546   1.399       .  A
C545        C550   1.405       .  A
C545        H552   1.084       .  S
C546        C547   1.404       .  A
C547        C548   1.394       .  A
C547        N554   1.429       .  S
C548        C549   1.405       .  A
C548        H553   1.085       .  S
C549        C550   1.416       .  A
C550        N551   1.427       .  S
N551        O555   1.262       .  A
N551        O556   1.262       .  A
N554        O558   1.261       .  A
N554        O557   1.262       .  A
C559        C564   1.391       .  A
C559        H566   1.084       .  S
C560        C561   1.405       .  A
C561        C562   1.397       .  A
C561        N568   1.430       .  S
C562        C563   1.409       .  A
C562        H567   1.083       .  S
C564        N565   1.429       .  S
N565        O569   1.262       .  A
N568        O572   1.262       .  A
C573        C574   1.404       .  A
C573        C578   1.407       .  A
C573        H580   1.084       .  S
C574        C575   1.410       .  A
C575        C576   1.388       .  A
C575        N582   1.429       .  S
C576        C577   1.401       .  A
C576        H581   1.085       .  S
C577        C578   1.415       .  A
C578        N579   1.428       .  S
N579        O583   1.262       .  A
N579        O584   1.262       .  A
N582        O586   1.262       .  A
N582        O585   1.262       .  A
C587        C588   1.398       .  A
C587        C592   1.387       .  A
C587        H594   1.084       .  S
C588        C589   1.412       .  A
C589        C590   1.403       .  A
C589        N596   1.428       .  S
C590        C591   1.406       .  A
C590        H595   1.084       .  S
C591        C592   1.415       .  A
C592        N593   1.429       .  S
N593        O597   1.261       .  A
N593        O598   1.261       .  A
N596        O600   1.262       .  A
N596        O599   1.262       .  A
C601        C902   1.419   1_554  A
C601        C606   1.408       .  A
C601        C863   1.503       .  S
C602        C901   1.416       .  A
C602        C603   1.405       .  A
C602        H607   1.083       .  S
C603        C604   1.402       .  A
C603        C888   1.481       .  S
C604        C905   1.396       .  A
C604        H608   1.085       .  S
C605        C904   1.396   1_554  A
C605        C606   1.397       .  A
C605        C874   1.477       .  S
C606        H609   1.079       .  S
C610        C911   1.403       .  A
C610        C615   1.404   1_556  A
C610        C818   1.475       .  S
C611        C910   1.404       .  A
C611        C612   1.397       .  A
C611        H616   1.083       .  S
C612        C613   1.399       .  A
C612        C846   1.469       .  S
C613        C914   1.400       .  A
C613        H617   1.085       .  S
C614        C913   1.398   1_554  A
C614        C615   1.392       .  A
C614        C835   1.465       .  S
C615        H618   1.084       .  S
C619        C920   1.413       .  A
C619        C624   1.413   1_556  A
C619        C779   1.499   1_556  S
C620        C919   1.410       .  A
C620        C621   1.401       .  A
C620        H625   1.083       .  S
C621        C622   1.404       .  A
C621        C804   1.478       .  S
C622        C923   1.397       .  A
C622        H626   1.085       .  S
C623        C922   1.397   1_554  A
C623        C624   1.399       .  A
C623        C793   1.482       .  S
C624        H627   1.079       .  S
N628        C633   1.353       .  A
N628        C632   1.353       .  A
N628        H660   1.039   1_565  S
N629        C636   1.350       .  A
N629        C637   1.347       .  A
N630        C635   1.352   1_554  A
N630        C634   1.352   1_554  A
N630        H661   1.036       .  S
N631        C638   1.348   1_545  A
N631        C639   1.347       .  A
C632        C640   1.386       .  A
C633        C649   1.412       .  A
C633        C641   1.386       .  A
C634        C642   1.388       .  A
C635        C650   1.413       .  A
C635        C643   1.387       .  A
C636        C648   1.412   1_546  A
C636        C644   1.384       .  A
C637        C651   1.411       .  A
C637        C645   1.386       .  A
C638        C646   1.388       .  A
C638        C649   1.411       .  A
C639        C647   1.386       .  A
C639        C650   1.408   1_554  A
C640        C641   1.372       .  A
C641        H653   1.082       .  S
C642        C643   1.370       .  A
C642        H654   1.082       .  S
C643        H655   1.083       .  S
C644        C645   1.370       .  A
C644        H656   1.081       .  S
C645        H657   1.081       .  S
C646        C647   1.370   1_565  A
C646        H658   1.081       .  S
C647        H659   1.082       .  S
C648        C821   1.491       .  S
C649        C860   1.483       .  S
C650        C776   1.477       .  S
C651        C762   1.472       .  S
C662        C663   1.417   1_556  A
C662        C967   1.410       .  A
C662        C765   1.505       .  S
C663        C664   1.403       .  A
C663        H668   1.082       .  S
C664        C965   1.398   1_554  A
C664        C737   1.474       .  S
C665        C964   1.403       .  A
C665        C666   1.395       .  A
C665        H669   1.085       .  S
C666        C667   1.396       .  A
C666        C751   1.477       .  S
C667        C962   1.408       .  A
C667        H670   1.078       .  S
O671       Zr683   2.461       .  S
O671        C673   1.292       .  A
O672       Zr709   2.400       .  S
O672        C673   1.282       .  A
C673        C891   1.482       .  S
O674       Zr686   2.434       .  S
O674        C676   1.287       .  A
O675       Zr710   2.408       .  S
O675        C676   1.283       .  A
C676        C832   1.464       .  S
O677       Zr686   2.464       .  S
O677        C679   1.290       .  A
O678       Zr709   2.411       .  S
O678        C679   1.284       .  A
C679        C849   1.479       .  S
O680       Zr683   2.465       .  S
O680        C682   1.290       .  A
O681       Zr710   2.413       .  S
O681        C682   1.285       .  A
C682        C877   1.477       .  S
Zr683       O684   2.434       .  S
Zr683       O685   2.437       .  S
Zr683       O689   2.382       .  S
Zr683       O690   2.379       .  S
Zr683       O713   2.372       .  S
Zr683       O715   2.372       .  S
O684        H727   0.990       .  S
O685        H726   0.990       .  S
O685        H730   0.990       .  S
Zr686       O687   2.436       .  S
Zr686       O688   2.433       .  S
Zr686       O690   2.386       .  S
Zr686       O689   2.368       .  S
Zr686       O714   2.370       .  S
Zr686       O716   2.379       .  S
O687        H728   0.990       .  S
O687        H731   0.990       .  S
O688        H721   0.990       .  S
O689       Zr709   2.370       .  S
O690       Zr710   2.381       .  S
O690        H717   0.970       .  S
O691       Zr703   2.437       .  S
O691        C693   1.286       .  A
O692       Zr710   2.399       .  S
O692        C693   1.282       .  A
C693        C790   1.464       .  S
O694       Zr706   2.444       .  S
O694        C696   1.287       .  A
O695       Zr709   2.405       .  S
O695        C696   1.284       .  A
C696        C748   1.472       .  S
O697       Zr706   2.454       .  S
O697        C699   1.290       .  A
O698       Zr710   2.403       .  S
O698        C699   1.282       .  A
C699        C734   1.477       .  S
O700       Zr703   2.443       .  S
O700        C702   1.289       .  A
O701       Zr709   2.397       .  S
O701        C702   1.281       .  A
C702        C807   1.473       .  S
Zr703       O704   2.436       .  S
Zr703       O705   2.434       .  S
Zr703       O711   2.372       .  S
Zr703       O712   2.366       .  S
Zr703       O715   2.373       .  S
Zr703       O713   2.374       .  S
O704        H724   0.990       .  S
O704        H729   0.990       .  S
O705        H725   0.990       .  S
Zr706       O707   2.439       .  S
Zr706       O708   2.434       .  S
Zr706       O712   2.375       .  S
Zr706       O711   2.371       .  S
Zr706       O716   2.369       .  S
Zr706       O714   2.378       .  S
O707        H723   0.990       .  S
O708        H722   0.990       .  S
O708        H732   0.990       .  S
Zr709       O712   2.371       .  S
Zr709       O714   2.370       .  S
Zr709       O715   2.380       .  S
Zr710       O711   2.376       .  S
Zr710       O713   2.371       .  S
Zr710       O716   2.373       .  S
O711        H719   0.973       .  S
O714        H718   0.965       .  S
O715        H720   0.972       .  S
C733        C734   1.406       .  A
C733        C738   1.403       .  A
C733        H740   1.084       .  S
C734        C735   1.413       .  A
C735        C736   1.389       .  A
C735        N742   1.429       .  S
C736        C737   1.398       .  A
C736        H741   1.084       .  S
C737        C738   1.409       .  A
C738        N739   1.428       .  S
N739        O743   1.262       .  A
N739        O744   1.262       .  A
N742        O746   1.262       .  A
N742        O745   1.261       .  A
C747        C748   1.400       .  A
C747        C752   1.391       .  A
C747        H754   1.085       .  S
C748        C749   1.412       .  A
C749        C750   1.403       .  A
C749        N756   1.427       .  S
C750        C751   1.402       .  A
C750        H755   1.084       .  S
C751        C752   1.411       .  A
C752        N753   1.429       .  S
N753        O757   1.262       .  A
N753        O758   1.262       .  A
N756        O760   1.262       .  A
N756        O759   1.262       .  A
C761       C1062   1.391       .  A
C761        C766   1.395       .  A
C761        H768   1.084       .  S
C762       C1061   1.389       .  A
C762        C763   1.401   1_556  A
C763        C764   1.397       .  A
C764        C765   1.415   1_554  A
C764        H769   1.082       .  S
C765       C1066   1.430       .  A
C766       C1065   1.428       .  A
C766        N767   1.428       .  S
N767        O771   1.262       .  A
N767        O772   1.263       .  A
N770       O1074   1.262       .  A
N770        O773   1.262   1_655  A
O774       N1070   1.262   1_655  A
C775        C776   1.391   1_554  A
C775        C780   1.391       .  A
C775        H782   1.085       .  S
C776       C1077   1.403       .  A
C777       C1076   1.411       .  A
C777        C778   1.397       .  A
C777        N784   1.429       .  S
C778       C1079   1.405       .  A
C778        H783   1.083       .  S
C779       C1078   1.416   1_554  A
C779        C780   1.422       .  A
C780        N781   1.429       .  S
N781        O785   1.262       .  A
N781       O1086   1.262       .  A
N784        O788   1.262       .  A
N784       O1087   1.262       .  A
O786       N1081   1.262       .  A
O787       N1084   1.261       .  A
C789        C790   1.394       .  A
C789        C794   1.390       .  A
C789        H796   1.085       .  S
C790        C791   1.407       .  A
C791        C792   1.407       .  A
C791        N798   1.430       .  S
C792        C793   1.408       .  A
C792        H797   1.083       .  S
C793        C794   1.414       .  A
C794        N795   1.428       .  S
N795        O799   1.262       .  A
N795        O800   1.262       .  A
N798        O802   1.262       .  A
N798        O801   1.262       .  A
C803        C804   1.398       .  A
C803        C808   1.387       .  A
C803        H810   1.081       .  S
C804        C805   1.413       .  A
C805        C806   1.401       .  A
C805        N812   1.428       .  S
C806        C807   1.405       .  A
C806        H811   1.084       .  S
C807        C808   1.412       .  A
C808        N809   1.429       .  S
N809        O813   1.262       .  A
N809        O814   1.262       .  A
N812        O816   1.262       .  A
N812        O815   1.262       .  A
C817        C818   1.398   1_554  A
C817        C822   1.390       .  A
C817        H824   1.084       .  S
C818       C1119   1.412       .  A
C819       C1118   1.407       .  A
C819        C820   1.396       .  A
C819        N826   1.431       .  S
C820       C1121   1.408       .  A
C820        H825   1.084       .  S
C821       C1120   1.408   1_554  A
C821        C822   1.413       .  A
C822        N823   1.428   1_565  S
N823        O827   1.262   1_545  A
N823        O828   1.262       .  A
N826        O830   1.262       .  A
N826        O829   1.262       .  A
C831        C832   1.402       .  A
C831        C836   1.397       .  A
C831        H838   1.084       .  S
C832        C833   1.410       .  A
C833        C834   1.390       .  A
C833        N840   1.428       .  S
C834        C835   1.398       .  A
C834        H839   1.084       .  S
C835        C836   1.408       .  A
C836        N837   1.428       .  S
N837        O841   1.262       .  A
N837        O842   1.262       .  A
N840        O844   1.262       .  A
N840        O843   1.262       .  A
C845        C846   1.397       .  A
C845        C850   1.403       .  A
C845        H852   1.084       .  S
C846        C847   1.404       .  A
C847        C848   1.397       .  A
C847        N854   1.430       .  S
C848        C849   1.407       .  A
C848        H853   1.085       .  S
C849        C850   1.415       .  A
C850        N851   1.428       .  S
N851        O855   1.261       .  A
N851        O856   1.262       .  A
N854        O858   1.262       .  A
N854        O857   1.262       .  A
C859       C1160   1.390       .  A
C859        C864   1.393       .  A
C859        H866   1.084       .  S
C860       C1159   1.392       .  A
C860        C861   1.406   1_554  A
C861        C862   1.404       .  A
C861        N868   1.430       .  S
C862        C863   1.411   1_556  A
C862        H867   1.083       .  S
C863       C1164   1.427       .  A
C864       C1163   1.427       .  A
C864        N865   1.429       .  S
N865        O869   1.262       .  A
N865       O1170   1.262       .  A
N868        O872   1.262       .  A
N868       O1171   1.262       .  A
O870       N1165   1.262       .  A
O871       N1168   1.262       .  A
C873        C874   1.402       .  A
C873        C878   1.408       .  A
C873        H880   1.084       .  S
C874        C875   1.409       .  A
C875        C876   1.393       .  A
C875        N882   1.428       .  S
C876        C877   1.399       .  A
C876        H881   1.085       .  S
C877        C878   1.415       .  A
C878        N879   1.428       .  S
N879        O883   1.262       .  A
N879        O884   1.262       .  A
N882        O886   1.262       .  A
N882        O885   1.261       .  A
C887        C888   1.398       .  A
C887        C892   1.392       .  A
C887        H894   1.084       .  S
C888        C889   1.412       .  A
C889        C890   1.405       .  A
C889        N896   1.427       .  S
C890        C891   1.405       .  A
C890        H895   1.084       .  S
C891        C892   1.415       .  A
C892        N893   1.429       .  S
N893        O897   1.261       .  A
N893        O898   1.260       .  A
N896        O900   1.262       .  A
N896        O899   1.262       .  A
C901        C906   1.407       .  A
C901       C1163   1.496       .  S
C902        C903   1.410       .  A
C902        H907   1.083       .  S
C903        C904   1.404       .  A
C903       C1188   1.487       .  S
C904        H908   1.085       .  S
C905        C906   1.396       .  A
C905       C1174   1.473       .  S
C906        H909   1.079       .  S
C910        C915   1.402       .  A
C910       C1118   1.471       .  S
C911        C912   1.398       .  A
C911        H916   1.082       .  S
C912        C913   1.399       .  A
C912       C1146   1.469       .  S
C913        H917   1.085       .  S
C914        C915   1.395       .  A
C914       C1135   1.471       .  S
C915        H918   1.084       .  S
C919        C924   1.405       .  A
C919       C1079   1.485       .  S
C920        C921   1.403       .  A
C920        H925   1.082       .  S
C921        C922   1.404       .  A
C921       C1104   1.482       .  S
C922        H926   1.084       .  S
C923        C924   1.394       .  A
C923       C1093   1.472       .  S
C924        H927   1.080       .  S
N928        C933   1.350       .  A
N928        C932   1.354       .  A
N928        H960   1.040   1_565  S
N929        C936   1.351       .  A
N929        C937   1.347       .  A
N930        C935   1.356       .  A
N930        C934   1.351       .  A
N930        H961   1.037       .  S
N931        C938   1.345       .  A
N931        C939   1.348       .  A
C932        C940   1.386       .  A
C933        C949   1.407       .  A
C933        C941   1.386       .  A
C934        C942   1.388       .  A
C935        C950   1.416       .  A
C935        C943   1.386       .  A
C936        C948   1.411   1_545  A
C936        C944   1.383       .  A
C937        C951   1.413       .  A
C937        C945   1.388       .  A
C938        C946   1.386       .  A
C938        C949   1.406   1_545  A
C939        C947   1.386       .  A
C939        C950   1.409       .  A
C940        C941   1.370       .  A
C941        H953   1.082       .  S
C942        C943   1.369       .  A
C942        H954   1.082       .  S
C943        H955   1.082       .  S
C944        C945   1.369       .  A
C944        H956   1.080       .  S
C945        H957   1.081       .  S
C946        C947   1.369       .  A
C946        H958   1.081   1_545  S
C947        H959   1.081       .  S
C948       C1121   1.490       .  S
C949       C1160   1.472       .  S
C950       C1076   1.486       .  S
C951       C1062   1.478       .  S
C962        C963   1.420       .  A
C962       C1065   1.501       .  S
C963        C964   1.407       .  A
C963        H968   1.082       .  S
C964       C1037   1.489       .  S
C965        C966   1.395       .  A
C965        H969   1.083       .  S
C966        C967   1.402       .  A
C966       C1051   1.485       .  S
C967        H970   1.076       .  S
O971       Zr983   2.460       .  S
O971        C973   1.291       .  A
O972      Zr1009   2.412       .  S
O972        C973   1.284       .  A
C973       C1191   1.485       .  S
O974       Zr986   2.448       .  S
O974        C976   1.289       .  A
O975      Zr1010   2.401       .  S
O975        C976   1.281       .  A
C976       C1132   1.472       .  S
O977       Zr986   2.468       .  S
O977        C979   1.291       .  A
O978      Zr1009   2.391       .  S
O978        C979   1.281       .  A
C979       C1149   1.476       .  S
O980       Zr983   2.447       .  S
O980        C982   1.287       .  A
O981      Zr1010   2.410       .  S
O981        C982   1.285       .  A
C982       C1177   1.473       .  S
Zr983       O984   2.433       .  S
Zr983       O985   2.437       .  S
Zr983       O989   2.378       .  S
Zr983       O990   2.388       .  S
Zr983      O1013   2.378       .  S
Zr983      O1015   2.369       .  S
O984       H1027   0.990       .  S
O985       H1026   0.990       .  S
O985       H1030   0.989       .  S
Zr986       O987   2.435       .  S
Zr986       O988   2.434       .  S
Zr986       O990   2.382       .  S
Zr986       O989   2.368       .  S
Zr986      O1014   2.368       .  S
Zr986      O1016   2.276       .  S
O987       H1028   0.990       .  S
O987       H1031   0.990       .  S
O988       H1021   0.990       .  S
O989      Zr1009   2.372       .  S
O990      Zr1010   2.379       .  S
O990       H1017   0.963       .  S
O991      Zr1003   2.441       .  S
O991        C993   1.286       .  A
O992      Zr1010   2.381       .  S
O992        C993   1.279       .  A
C993       C1090   1.460       .  S
O994      Zr1006   2.451       .  S
O994        C996   1.288       .  A
O995      Zr1009   2.402       .  S
O995        C996   1.285       .  A
C996       C1048   1.485       .  S
O997      Zr1006   2.469       .  S
O997        C999   1.293       .  A
O998      Zr1010   2.402       .  S
O998        C999   1.281       .  A
C999       C1034   1.487       .  S
O1000     Zr1003   2.447       .  S
O1000      C1002   1.289       .  A
O1001     Zr1009   2.408       .  S
O1001      C1002   1.283       .  A
C1002      C1107   1.475       .  S
Zr1003     O1004   2.436       .  S
Zr1003     O1005   2.434       .  S
Zr1003     O1011   2.376       .  S
Zr1003     O1012   2.378       .  S
Zr1003     O1015   2.373       .  S
Zr1003     O1013   2.379       .  S
O1004      H1024   0.990       .  S
O1004      H1029   0.990       .  S
O1005      H1025   0.990       .  S
Zr1006     O1007   2.435       .  S
Zr1006     O1008   2.435       .  S
Zr1006     O1012   2.384       .  S
Zr1006     O1011   2.369       .  S
Zr1006     O1014   2.381       .  S
Zr1006     O1016   2.273       .  S
O1007      H1023   0.990       .  S
O1008      H1022   0.991       .  S
O1008      H1032   0.990       .  S
Zr1009     O1012   2.379       .  S
Zr1009     O1014   2.382       .  S
Zr1009     O1015   2.374       .  S
Zr1010     O1011   2.378       .  S
Zr1010     O1013   2.367       .  S
Zr1010     O1016   2.257       .  S
O1011      H1019   0.958       .  S
O1014      H1018   0.974       .  S
O1015      H1020   0.970       .  S
C1033      C1034   1.406       .  A
C1033      C1038   1.406       .  A
C1033      H1040   1.084       .  S
C1034      C1035   1.417       .  A
C1035      C1036   1.393       .  A
C1035      N1042   1.430       .  S
C1036      C1037   1.401       .  A
C1036      H1041   1.083       .  S
C1037      C1038   1.414       .  A
C1038      N1039   1.427       .  S
N1039      O1043   1.262       .  A
N1039      O1044   1.262       .  A
N1042      O1046   1.262       .  A
N1042      O1045   1.261       .  A
C1047      C1048   1.403       .  A
C1047      C1052   1.388       .  A
C1047      H1054   1.084       .  S
C1048      C1049   1.416       .  A
C1049      C1050   1.404       .  A
C1049      N1056   1.428       .  S
C1050      C1051   1.404       .  A
C1050      H1055   1.084       .  S
C1051      C1052   1.415       .  A
C1052      N1053   1.430       .  S
N1053      O1057   1.262       .  A
N1053      O1058   1.263       .  A
N1056      O1060   1.262       .  A
N1056      O1059   1.262       .  A
C1061      C1066   1.394       .  A
C1061      H1068   1.084       .  S
C1062      C1063   1.403       .  A
C1063      C1064   1.400       .  A
C1064      C1065   1.412       .  A
C1064      H1069   1.083       .  S
C1066      N1067   1.428       .  S
N1067      O1071   1.262       .  A
N1067      O1072   1.263       .  A
N1070      O1073   1.262       .  A
C1075      C1076   1.399       .  A
C1075      C1080   1.393       .  A
C1075      H1082   1.085       .  S
C1077      C1078   1.404       .  A
C1077      N1084   1.431       .  S
C1078      H1083   1.082       .  S
C1079      C1080   1.418       .  A
C1080      N1081   1.430       .  S
N1081      O1085   1.262       .  A
N1084      O1088   1.262       .  A
C1089      C1090   1.395       .  A
C1089      C1094   1.386       .  A
C1089      H1096   1.085       .  S
C1090      C1091   1.406       .  A
C1091      C1092   1.405       .  A
C1091      N1098   1.429       .  S
C1092      C1093   1.407       .  A
C1092      H1097   1.083       .  S
C1093      C1094   1.411       .  A
C1094      N1095   1.428       .  S
N1095      O1099   1.262       .  A
N1095      O1100   1.262       .  A
N1098      O1102   1.262       .  A
N1098      O1101   1.262       .  A
C1103      C1104   1.401       .  A
C1103      C1108   1.392       .  A
C1103      H1110   1.083       .  S
C1104      C1105   1.414       .  A
C1105      C1106   1.402       .  A
C1105      N1112   1.428       .  S
C1106      C1107   1.403       .  A
C1106      H1111   1.084       .  S
C1107      C1108   1.412       .  A
C1108      N1109   1.429       .  S
N1109      O1113   1.262       .  A
N1109      O1114   1.262       .  A
N1112      O1116   1.262       .  A
N1112      O1115   1.262       .  A
C1117      C1118   1.399       .  A
C1117      C1122   1.395       .  A
C1117      H1124   1.084       .  S
C1119      C1120   1.401       .  A
C1119      N1126   1.432       .  S
C1120      H1125   1.084       .  S
C1121      C1122   1.414       .  A
C1122      N1123   1.429   1_565  S
N1123      O1127   1.262   1_545  A
N1123      O1128   1.262       .  A
N1126      O1130   1.262       .  A
N1126      O1129   1.262       .  A
C1131      C1132   1.403       .  A
C1131      C1136   1.399       .  A
C1131      H1138   1.084       .  S
C1132      C1133   1.412       .  A
C1133      C1134   1.392       .  A
C1133      N1140   1.427       .  S
C1134      C1135   1.398       .  A
C1134      H1139   1.084       .  S
C1135      C1136   1.410       .  A
C1136      N1137   1.428       .  S
N1137      O1141   1.262       .  A
N1137      O1142   1.262       .  A
N1140      O1144   1.261       .  A
N1140      O1143   1.262       .  A
C1145      C1146   1.398       .  A
C1145      C1150   1.401       .  A
C1145      H1152   1.084       .  S
C1146      C1147   1.408       .  A
C1147      C1148   1.395       .  A
C1147      N1154   1.432       .  S
C1148      C1149   1.406       .  A
C1148      H1153   1.085       .  S
C1149      C1150   1.413       .  A
C1150      N1151   1.427       .  S
N1151      O1155   1.261       .  A
N1151      O1156   1.262       .  A
N1154      O1158   1.262       .  A
N1154      O1157   1.262       .  A
C1159      C1164   1.396       .  A
C1159      H1166   1.084       .  S
C1160      C1161   1.402       .  A
C1161      C1162   1.398       .  A
C1161      N1168   1.431       .  S
C1162      C1163   1.411       .  A
C1162      H1167   1.083       .  S
C1164      N1165   1.428       .  S
N1165      O1169   1.262       .  A
N1168      O1172   1.262       .  A
C1173      C1174   1.402       .  A
C1173      C1178   1.406       .  A
C1173      H1180   1.084       .  S
C1174      C1175   1.408       .  A
C1175      C1176   1.389       .  A
C1175      N1182   1.428       .  S
C1176      C1177   1.399       .  A
C1176      H1181   1.085       .  S
C1177      C1178   1.414       .  A
C1178      N1179   1.428       .  S
N1179      O1183   1.262       .  A
N1179      O1184   1.262       .  A
N1182      O1186   1.262       .  A
N1182      O1185   1.262       .  A
C1187      C1188   1.401       .  A
C1187      C1192   1.395       .  A
C1187      H1194   1.084       .  S
C1188      C1189   1.413       .  A
C1189      C1190   1.407       .  A
C1189      N1196   1.427       .  S
C1190      C1191   1.406       .  A
C1190      H1195   1.084       .  S
C1191      C1192   1.413       .  A
C1192      N1193   1.428       .  S
N1193      O1197   1.262       .  A
N1193      O1198   1.261       .  A
N1196      O1200   1.262       .  A
N1196      O1199   1.262       .  A
