geometry optimzed in LAMMPS
_audit_creation_date              2020-11-30 
_audit_creation_method            'lammps2cif' 
_symmetry_space_group_name_H-M    'P1' 
_symmetry_Int_Tables_number       1 
_symmetry_cell_setting            triclinic 
loop_ 
_symmetry_equiv_pos_as_xyz 
  x,y,z 
_cell_length_a                    39.951692836944694 
_cell_length_b                    40.60567244311468 
_cell_length_c                    28.293139597032095 
_cell_angle_alpha                 88.5450425941315 
_cell_angle_beta                  91.26819566344066 
_cell_angle_gamma                 120.0758561843858 
loop_ 
_atom_site_label 
_atom_site_type_symbol 
_atom_site_fract_x 
_atom_site_fract_y 
_atom_site_fract_z 
_atom_site_charge 
O1          O  0.02493918  0.14737267  0.31440112    -0.88660
C2          C  0.10010735  0.17254852  0.21172007     0.87370
Mg3        Mg  0.02627199  0.18302668  0.37162632     1.58150
O4          O  0.08348080  0.10696661  0.30291941    -0.88390
O5          O  0.99940722  0.08783675  0.29456754    -0.75720
C6          C  0.20175859  0.23903002  0.47506533     0.92420
O7          O  0.09148130  0.22431248  0.27992489    -0.75530
O8          O  0.18142480  0.25607896  0.47233528    -0.83040
Mg9        Mg  0.03823941  0.17472471  0.24181623     1.57960
C10         C  0.17770837  0.13817831  0.37713131     0.92340
O11         O  0.47722830  0.12339997  0.20712864    -0.81300
H12         H  0.04164623  0.06351336  0.33936211    -0.06650
C13         C  0.17126917  0.21817521  0.34712376     0.87280
O14         O  0.03573800  0.15073619  0.43204262    -0.75810
O15         O  0.06875827  0.14870499  0.22896146    -0.88580
O16         O  0.15975721  0.12218260  0.34004159    -0.81390
C17         C  0.12623255  0.09551675  0.19987738     0.92460
C18         C  0.46430615  0.09041684  0.18828941     0.92310
Mg19       Mg  0.13085181  0.15603422  0.42092228     1.57950
O20         O  0.18755510  0.20565660  0.45787800    -0.81310
O21         O  0.07955043  0.10549985  0.38211333    -0.75550
O22         O  0.08998385  0.08559181  0.19375741    -0.81390
O23         O  0.51737348  0.21486997  0.24154425    -0.83100
O24         O  0.07943682  0.24881262  0.46675542    -0.81420
C25         C  0.06774030  0.09098213  0.34108539     0.86750
O26         O  0.09890352  0.18170200  0.43445685    -0.88560
O27         O  0.14444876  0.18495647  0.34987063    -0.88670
O28         O  0.17136541  0.24394722  0.37095748    -0.75720
Mg29       Mg  0.04258327  0.09008526  0.24279216     1.57970
O30         O  0.14686820  0.11758792  0.23249188    -0.83100
H31         H  0.97823961  0.10482675  0.34635392    -0.06820
O32         O  0.08701373  0.22444655  0.35913025    -0.88370
H33         H  0.13056466  0.26587893  0.32221898    -0.06650
H34         H  0.06716249  0.14474322  0.48537983    -0.06820
C35         C  0.10357438  0.23919130  0.32079429     0.86720
C36         C  0.99998113  0.11341492  0.31956537     0.87310
C37         C  0.06749100  0.15951609  0.45289970     0.87360
H38         H  0.19498596  0.22590861  0.32382842    -0.06800
O39         O  0.13158068  0.18318622  0.23372656    -0.75830
Mg40       Mg  0.12636148  0.24148433  0.41947445     1.58000
H41         H  0.10053582  0.18824971  0.18018875    -0.06820
C42         C  0.50046257  0.20319283  0.27974359     0.92340
O43         O  0.02260167  0.21864736  0.42901248    -0.83060
C44         C  0.04371676  0.24079443  0.46128467     0.92400
O45         O  0.98677626  0.07549040  0.18835346    -0.83040
Mg46       Mg  0.14362492  0.15148732  0.29062887     1.58180
O47         O  0.51974726  0.21634094  0.31694158    -0.81380
O48         O  0.16101212  0.12442353  0.41535944    -0.83070
C49         C  0.14309142  0.07345862  0.17874325     0.00250
C50         C  0.18149942  0.09201780  0.15943529     0.00250
C51         C  0.42081771  0.06737687  0.17070303     0.00250
C52         C  0.39893434  0.08536492  0.15413124     0.00250
O53         O  0.04167765  0.35970903  0.34468697    -0.88660
C54         C  0.15541146  0.40737691  0.37347157     0.87370
Mg55       Mg  0.01537112  0.35458386  0.27516737     1.58150
O56         O  0.10076387  0.44441411  0.41611402    -0.88390
O57         O  0.03492430  0.36454603  0.42069556    -0.75720
C58         C  0.12060826  0.53421124  0.20296109     0.92420
O59         O  0.10879962  0.37338151  0.27580129    -0.75530
O60         O  0.09926846  0.50339101  0.18089072    -0.83040
Mg61       Mg  0.08482240  0.34157056  0.34720908     1.57960
C62         C  0.14227328  0.04734782  0.38182531     0.92340
O63         O  0.05471670  0.30639234  0.41469962    -0.81300
H64         H  0.05210309  0.43425203  0.44802203    -0.06650
C65         C  0.15005470  0.48402012  0.28571732     0.87280
O66         O  0.99745860  0.39837051  0.29208011    -0.75810
O67         O  0.12072506  0.39024123  0.38421829    -0.88580
O68         O  0.13082751  0.02125823  0.41219210    -0.81390
C69         C  0.19436919  0.46770308  0.47584730     0.92460
C70         C  0.05407630  0.30506149  0.45962990     0.92310
Mg71       Mg  0.08623468  0.49781686  0.31536496     1.57950
O72         O  0.11728575  0.03382244  0.24783303    -0.81310
O73         O  0.06072666  0.46308951  0.38557491    -0.75550
O74         O  0.16816330  0.43184292  0.47366095    -0.81390
O75         O  0.05163057  0.28839447  0.30809660    -0.83100
O76         O  0.00090369  0.40494573  0.18573938    -0.81420
C77         C  0.07082663  0.44690452  0.41793369     0.86750
O78         O  0.05150157  0.45027226  0.27657752    -0.88560
O79         O  0.12963497  0.48064771  0.32007573    -0.88670
O80         O  0.13559135  0.47161403  0.24481511    -0.75720
Mg81       Mg  0.09839438  0.39620325  0.44879462     1.57970
O82         O  0.18558338  0.49248685  0.46190045    -0.83100
H83         H  0.98972260  0.33953016  0.37432773    -0.06820
O84         O  0.06902709  0.39277106  0.24730567    -0.88370
H85         H  0.11495450  0.39955515  0.21187421    -0.06650
H86         H  0.00363937  0.45106864  0.29419648    -0.06820
C87         C  0.09775613  0.38861188  0.24345769     0.86720
C88         C  0.02076412  0.35398101  0.37930980     0.87310
C89         C  0.01697994  0.43420469  0.28719349     0.87360
H90         H  0.18107637  0.49778459  0.29061410    -0.06800
O91         O  0.17483175  0.44354254  0.37115557    -0.75830
Mg92       Mg  0.07284433  0.44102525  0.21363057     1.58000
H93         H  0.16919109  0.39123888  0.36474705    -0.06820
C94         C  0.52410273  0.29091577  0.29030347     0.92340
O95         O  0.48728314  0.34668909  0.20446661    -0.83060
C96         C  0.47595438  0.36837719  0.18706111     0.92400
O97         O  0.07890463  0.33477202  0.48178684    -0.83040
Mg98       Mg  0.15505060  0.48555309  0.39065021     1.58180
O99         O  0.53111779  0.31309692  0.25570853    -0.81380
O100        O  0.11802530  0.05044780  0.35631608    -0.83070
O101        O  0.32304857  0.35735094  0.35740056    -0.88660
C102        C  0.33912644  0.43834732  0.44573473     0.87370
Mg103      Mg  0.36212133  0.36024488  0.30107738     1.58150
O104        O  0.26593281  0.40238469  0.35712859    -0.88390
O105        O  0.26239868  0.32922363  0.37960459    -0.75720
C106        C  0.40003435  0.02334175  0.18342736     0.92420
O107        O  0.39876523  0.42763264  0.38307854    -0.75530
O108        O  0.41798885  0.50387524  0.18234714    -0.83040
Mg109      Mg  0.34963975  0.37587054  0.42648994     1.57960
C110        C  0.26968421  0.98049056  0.27050306     0.92340
O111        O  0.30090776  0.31774733  0.46326180    -0.81300
H112        H  0.22650319  0.35536336  0.32381208    -0.06650
C113        C  0.37286390  0.49283762  0.30682659     0.87280
O114        O  0.32231453  0.35835976  0.24127459    -0.75810
O115        O  0.31922314  0.40483941  0.43395882    -0.88580
O116        O  0.25851302  0.95542408  0.30248910    -0.81390
C117        C  0.25267187  0.45877057  0.45861401     0.92460
C118        C  0.26705353  0.30297077  0.48097506     0.92310
Mg119      Mg  0.31505708  0.44736043  0.23474781     1.57950
O120        O  0.36550610  0.00688994  0.20007675    -0.81310
O121        O  0.26580480  0.39459624  0.27824809    -0.75550
O122        O  0.25052127  0.42619791  0.47143512    -0.81390
O123        O  0.38172578  0.34621748  0.42708082    -0.83100
O124        O  0.41865013  0.40316139  0.19170478    -0.81420
C125        C  0.25187717  0.38325755  0.32024744     0.86750
O126        O  0.34611557  0.41923712  0.22741762    -0.88560
O127        O  0.33988144  0.46463307  0.30509034    -0.88670
O128        O  0.40099895  0.49416428  0.28493343    -0.75720
Mg129      Mg  0.25808042  0.37369779  0.42493739     1.57970
O130        O  0.26316967  0.47070091  0.41654133    -0.83100
H131        H  0.28375991  0.30447823  0.33777905    -0.06820
O132        O  0.39706975  0.41992286  0.30423268    -0.88370
H133        H  0.43816398  0.46613857  0.33715609    -0.06650
H134        H  0.30686350  0.37960883  0.18464210    -0.06820
C135        C  0.41225818  0.43867847  0.34099829     0.86720
C136        C  0.28979052  0.32947499  0.35705242     0.87310
C137        C  0.32531028  0.38573762  0.21556795     0.87360
H138        H  0.37807980  0.51726887  0.32670844    -0.06800
O139        O  0.33940881  0.46488547  0.42099674    -0.75830
Mg140      Mg  0.40744798  0.45176676  0.23853131     1.58000
H141        H  0.35820591  0.44527560  0.47615954    -0.06820
C142        C  0.39604234  0.34236073  0.39027765     0.92340
O143        O  0.39651767  0.35290953  0.24041481    -0.83060
C144        C  0.41301936  0.36888415  0.20168814     0.92400
O145        O  0.25010971  0.32326477  0.48152676    -0.83040
Mg146      Mg  0.29937712  0.46122939  0.35946221     1.58180
O147        O  0.40521923  0.36568326  0.35628572    -0.81380
O148        O  0.28035235  0.97509988  0.23172381    -0.83070
C149        C  0.43165945  0.34858629  0.17465811     0.00250
C150        C  0.41111026  0.30818123  0.15968062     0.00250
O151        O  0.28805918  0.49388536  0.01892790    -0.88660
C152        C  0.27715236  0.08706996  0.03675966     0.87370
Mg153      Mg  0.30242969  0.47468622  0.95138180     1.58150
O154        O  0.21564499  0.99437719  0.08465795    -0.88390
O155        O  0.28457328  0.48937495  0.09664892    -0.75720
C156        C  0.13269926  0.42468738  0.86222613     0.92420
O157        O  0.30283446  0.05525518  0.94607334    -0.75530
O158        O  0.16001070  0.41951028  0.84642046    -0.83040
Mg159      Mg  0.32700921  0.05250654  0.02286962     1.57960
C160        C  0.12402804  0.46762969  0.03779745     0.92340
O161        O  0.35349689  0.04758783  0.09620432    -0.81300
H162        H  0.21234565  0.44792690  0.11607011    -0.06650
C163        C  0.20653944  0.01554701  0.93794784     0.87280
O164        O  0.25042042  0.41514523  0.96560922    -0.75810
O165        O  0.28520132  0.06333711  0.05304851    -0.88580
O166        O  0.14205889  0.96000506  0.06762117    -0.81390
C167        C  0.19842064  0.06826323  0.13718264     0.92460
C168        C  0.35772452  0.06371534  0.13558995     0.92310
Mg169      Mg  0.16511405  0.44058782  0.97314574     1.57950
O170        O  0.13808356  0.44317335  0.89994742    -0.81310
O171        O  0.18966542  0.43810684  0.04933701    -0.75550
O172        O  0.23342751  0.07328558  0.14403328    -0.81390
O173        O  0.36904131  0.03717135  0.00058171    -0.83100
O174        O  0.26051684  0.42137803  0.85057658    -0.81420
C175        C  0.20635713  0.45997434  0.08470972     0.86750
O176        O  0.20682030  0.42916621  0.94256280    -0.88560
O177        O  0.20482171  0.99856743  0.97569145    -0.88670
O178        O  0.20703288  0.00206064  0.89771278    -0.75720
Mg179      Mg  0.26607277  0.03364791  0.11909902     1.57970
O180        O  0.17625304  0.04372604  0.10729584    -0.83100
H181        H  0.28984462  0.45190817  0.05521958    -0.06820
O182        O  0.27643606  0.49891244  0.91050831    -0.88370
H183        H  0.28033649  0.04567052  0.87916909    -0.06650
H184        H  0.19253341  0.37705811  0.96654742    -0.06820
C185        C  0.28610765  0.03345726  0.91053458     0.86720
C186        C  0.28731826  0.47708665  0.05644281     0.87310
C187        C  0.21527128  0.40567185  0.95847609     0.87360
H188        H  0.20820466  0.04267958  0.93886612    -0.06800
O189        O  0.24224436  0.07764249  0.02797460    -0.75830
Mg190      Mg  0.22566105  0.45838691  0.87606106     1.58000
H191        H  0.30000100  0.11584440  0.02941944    -0.06820
C192        C  0.36775771  0.02558810  0.95980697     0.92340
O193        O  0.31821511  0.45292073  0.88588267    -0.83060
C194        C  0.29643286  0.42845520  0.85591873     0.92400
O195        O  0.33072948  0.06951375  0.15049687    -0.83040
Mg196      Mg  0.19026605  0.01849783  0.04281605     1.58180
O197        O  0.34982128  0.53211150  0.92856948    -0.81380
O198        O  0.12481957  0.45966410  0.99566047    -0.83070
O199        O  0.18424153  0.20776930  0.99199517    -0.88660
C200        C  0.22672496  0.31790874  0.96359244     0.87370
Mg201      Mg  0.18000415  0.17949699  0.05962248     1.58150
O202        O  0.27160344  0.27152048  0.92003992    -0.88390
O203        O  0.19254337  0.20406409  0.91583033    -0.75720
C204        C  0.36916268  0.28459534  0.13711061     0.92420
O205        O  0.20071639  0.27044144  0.06057738    -0.75530
O206        O  0.33825729  0.25907716  0.15899693    -0.83040
Mg207      Mg  0.16376488  0.24820943  0.99003548     1.57960
C208        C  0.38206446  0.31958483  0.95117051     0.92340
O209        O  0.12389044  0.21498132  0.92119869    -0.81300
H210        H  0.26637256  0.22629885  0.88636489    -0.06650
C211        C  0.30456412  0.31133763  0.05654890     0.87280
O212        O  0.22637965  0.16515959  0.03669749    -0.75810
O213        O  0.21101846  0.28458093  0.95017706    -0.88580
O214        O  0.35180401  0.30755829  0.92702335    -0.81390
C215        C  0.29455076  0.36369329  0.85910815     0.92460
C216        C  0.12234382  0.21112115  0.87593617     0.92310
Mg217      Mg  0.32973557  0.25803879  0.02101497     1.57950
O218        O  0.36715910  0.28571349  0.09180214    -0.81310
O219        O  0.29604343  0.23585277  0.94858842    -0.75550
O220        O  0.25778113  0.33709532  0.85664485    -0.81390
O221        O  0.11186209  0.22009920  0.03558297    -0.83100
O222        O  0.23510044  0.16127913  0.14432844    -0.81420
C223        C  0.27758645  0.24416530  0.91703862     0.86750
O224        O  0.28103814  0.21626601  0.05706531    -0.88560
O225        O  0.30387515  0.29407348  0.02064563    -0.88670
O226        O  0.29814830  0.29601043  0.09780435    -0.75720
Mg227      Mg  0.22036815  0.26559582  0.88596500     1.57970
O228        O  0.31789704  0.35814792  0.88482863    -0.83100
H229        H  0.17025954  0.15862146  0.96106267    -0.06820
O230        O  0.22065663  0.23090119  0.09011967    -0.88370
H231        H  0.22957016  0.27787001  0.12304690    -0.06650
H232        H  0.27946337  0.17062967  0.02918002    -0.06820
C233        C  0.21725479  0.25998271  0.09254784     0.86720
C234        C  0.18192825  0.18895385  0.95682680     0.87310
C235        C  0.26320863  0.18354563  0.04101255     0.87360
H236        H  0.31214769  0.34084548  0.05296137    -0.06800
O237        O  0.26299824  0.33746590  0.97086120    -0.75830
Mg238      Mg  0.27131813  0.23332578  0.12345372     1.58000
H239        H  0.20879074  0.32977232  0.97202232    -0.06820
C240        C  0.11103475  0.19492640  0.06266346     0.92340
O241        O  0.17370969  0.14344553  0.12636597    -0.83060
C242        C  0.19842002  0.13478960  0.14305855     0.92400
O243        O  0.15301896  0.23458891  0.85204021    -0.83040
Mg244      Mg  0.30965339  0.32352469  0.95210602     1.58180
O245        O  0.14062609  0.20099217  0.08622853    -0.81380
O246        O  0.38369481  0.29972099  0.98482879    -0.83070
O247        O  0.50836369  0.30586071  0.98635725    -0.88660
C248        C  0.07562516  0.26196741  0.96518262     0.87370
Mg249      Mg  0.48754683  0.30667786  0.05705179     1.58150
O250        O  0.98227873  0.22181337  0.92095947    -0.88390
O251        O  0.49592886  0.30079394  0.91001867    -0.75720
C252        C  0.41396828  0.12470794  0.12958896     0.92420
O253        O  0.06366109  0.29436245  0.05736884    -0.75530
O254        O  0.41826475  0.15440746  0.15043444    -0.83040
Mg255      Mg  0.07076938  0.32761952  0.98539893     1.57960
C256        C  0.42134500  0.11610691  0.95017557     0.92340
O257        O  0.07469872  0.36247850  0.91412382    -0.81300
H258        H  0.44261699  0.23097302  0.88792515    -0.06650
C259        C  0.99268841  0.17929750  0.04915887     0.87280
O260        O  0.42505645  0.26138164  0.03815492    -0.75810
O261        O  0.05899760  0.27924344  0.95054033    -0.88580
O262        O  0.93468071  0.14500103  0.92427483    -0.81390
C263        C  0.05327858  0.19743643  0.86806978     0.92460
C264        C  0.07414970  0.36300433  0.86873931     0.92310
Mg265      Mg  0.41397747  0.16199609  0.01733366     1.57950
O266        O  0.41304120  0.12503345  0.08433011    -0.81310
O267        O  0.42205310  0.19869168  0.94786731    -0.75550
O268        O  0.06386386  0.23346941  0.87116673    -0.81390
O269        O  0.09001875  0.38125317  0.02462223    -0.83100
O270        O  0.42144416  0.25255215  0.14283393    -0.81420
C271        C  0.44905609  0.21778443  0.91770996     0.86750
O272        O  0.42521684  0.20864269  0.05490698    -0.88560
O273        O  0.97554853  0.18429672  0.01523880    -0.88670
O274        O  0.99047719  0.18942237  0.09060297    -0.75720
Mg275      Mg  0.02828388  0.26965383  0.88615806     1.57970
O276        O  0.01902822  0.17313345  0.87905967    -0.83100
H277        H  0.47561627  0.32495393  0.95509168    -0.06820
O278        O  0.50286986  0.26770371  0.08228022    -0.88370
H279        H  0.04433033  0.26372839  0.11872121    -0.06650
H280        H  0.37724201  0.20896028  0.03359353    -0.06820
C281        C  0.03696639  0.27480908  0.08751665     0.86720
C282        C  0.49246671  0.31108513  0.95106873     0.87310
C283        C  0.40768803  0.22537976  0.04246628     0.87360
H284        H  0.00989666  0.16608203  0.04332551    -0.06800
O285        O  0.05802897  0.22573005  0.96888447    -0.75830
Mg286      Mg  0.45735854  0.21809636  0.11702571     1.58000
H287        H  0.10566429  0.27814420  0.97600010    -0.06820
C288        C  0.05953451  0.37450714  0.04454035     0.92340
O289        O  0.46863728  0.31089914  0.12990471    -0.83060
C290        C  0.43488226  0.28910777  0.14503964     0.92400
O291        O  0.06805032  0.33241495  0.84770084    -0.83040
Mg292      Mg  0.99576404  0.18126568  0.94724713     1.58180
O293        O  0.54656564  0.34959477  0.07677190    -0.81380
O294        O  0.39437980  0.10925866  0.97731033    -0.83070
O295        O  0.15020767  0.02284592  0.69206604    -0.88660
C296        C  0.17547638  0.10054116  0.79229531     0.87370
Mg297      Mg  0.18114469  0.02095989  0.63109864     1.58150
O298        O  0.10270906  0.08079834  0.70742632    -0.88390
O299        O  0.09018384  0.00297065  0.71223984    -0.75720
C300        C  0.23771581  0.19663575  0.53263393     0.92420
O301        O  0.23054815  0.08415352  0.72313813    -0.75530
O302        O  0.25157152  0.17365961  0.53457620    -0.83040
Mg303      Mg  0.17834023  0.03441020  0.76147161     1.57960
C304        C  0.10680713  0.16703393  0.63797402     0.92340
O305        O  0.12721632  0.47937796  0.79615903    -0.81300
H306        H  0.05688542  0.04157506  0.67117397    -0.06650
C307        C  0.21329900  0.16232287  0.66644722     0.87280
O308        O  0.14491785  0.03397487  0.58059962    -0.75810
O309        O  0.15256324  0.06884458  0.77606216    -0.88580
O310        O  0.09871037  0.14146540  0.66861230    -0.81390
C311        C  0.08707818  0.12475071  0.81328483     0.92460
C312        C  0.09393122  0.46633980  0.81469753     0.92310
Mg313      Mg  0.15259560  0.13263846  0.59117926     1.57950
O314        O  0.20542622  0.18672112  0.55277509    -0.81310
O315        O  0.09870136  0.08114461  0.62842114    -0.75550
O316        O  0.07918795  0.08941177  0.82084906    -0.81390
O317        O  0.21040939  0.50165791  0.75543583    -0.83100
O318        O  0.25030395  0.07428418  0.53510858    -0.81420
C319        C  0.08507166  0.06694660  0.66946313     0.86750
O320        O  0.17500854  0.09615037  0.57686190    -0.88560
O321        O  0.17832247  0.14090777  0.66029072    -0.88670
O322        O  0.23843369  0.16006270  0.64216778    -0.75720
Mg323      Mg  0.09022759  0.04312174  0.76728919     1.57970
O324        O  0.10685500  0.14166037  0.77781862    -0.83100
H325        H  0.10578822  0.98208634  0.65861290    -0.06820
O326        O  0.22528153  0.07934209  0.64415441    -0.88370
H327        H  0.27229238  0.11934594  0.67748995    -0.06650
H328        H  0.12740804  0.06361847  0.53865511    -0.06820
C329        C  0.24381910  0.09459482  0.68116616     0.86720
C330        C  0.11516871  0.00139254  0.68696694     0.87310
C331        C  0.14859939  0.06475492  0.56402638     0.87360
H332        H  0.22261694  0.18301419  0.69391372    -0.06800
O333        O  0.17923565  0.13101153  0.77364011    -0.75830
Mg334      Mg  0.23778747  0.11923942  0.58652216     1.58000
H335        H  0.19432732  0.10245186  0.82141726    -0.06820
C336        C  0.22300636  0.49640539  0.71747612     0.92340
O337        O  0.21403610  0.01570105  0.56547213    -0.83060
C338        C  0.23947245  0.03792298  0.53546775     0.92400
O339        O  0.07798352  0.98761697  0.81587543    -0.83040
Mg340      Mg  0.14170906  0.13894965  0.71771223     1.58180
O341        O  0.21251700  0.50343153  0.67811543    -0.81380
O342        O  0.12856387  0.17126672  0.60386566    -0.83070
C343        C  0.08120860  0.18320288  0.85370758     0.00250
C344        C  0.06544500  0.14460058  0.83417008     0.00250
C345        C  0.09096372  0.40314460  0.84470220     0.00250
C346        C  0.07108131  0.42350138  0.82897861     0.00250
O347        O  0.48173948  0.12975690  0.67550139    -0.88660
C348        C  0.39269173  0.06272519  0.76353472     0.87370
Mg349      Mg  0.48576513  0.16558994  0.61475592     1.58150
O350        O  0.42960396  0.02575137  0.68324715    -0.88390
O351        O  0.50425122  0.09341905  0.70366508    -0.75720
C352        C  0.30538892  0.04153783  0.51707168     0.92420
O353        O  0.41348422  0.14423133  0.69968372    -0.75530
O354        O  0.32669455  0.07883456  0.51742314    -0.83040
Mg355      Mg  0.46094669  0.14014178  0.74105343     1.57960
C356        C  0.34750261  0.44344606  0.60420760     0.92340
O357        O  0.01479820  0.14488318  0.78501998    -0.81300
H358        H  0.47487769  0.02968517  0.64875071    -0.06650
C359        C  0.35162768  0.05201961  0.65067597     0.87280
O360        O  0.47527921  0.12142077  0.56000465    -0.75810
O361        O  0.42646158  0.07888515  0.74923446    -0.88580
O362        O  0.37567356  0.45869828  0.63250443    -0.81390
C363        C  0.37721826  0.95818370  0.78695856     0.92460
C364        C  0.02496778  0.12473238  0.81050147     0.92310
Mg365      Mg  0.37845086  0.02693924  0.56624151     1.57950
O366        O  0.32010248  0.02169221  0.53318587    -0.81310
O367        O  0.43358914  0.02880375  0.60414206    -0.75550
O368        O  0.40001933  0.99265769  0.80155824    -0.81390
O369        O  0.99185889  0.20440753  0.73515097    -0.83100
O370        O  0.43382931  0.18394327  0.52105755    -0.81420
C371        C  0.44714870  0.02825940  0.64592903     0.86750
O372        O  0.41237745  0.08741884  0.55403854    -0.88560
O373        O  0.36670714  0.03368717  0.63763052    -0.88670
O374        O  0.35314633  0.07984633  0.62705026    -0.75720
Mg375      Mg  0.45668620  0.04831507  0.75141711     1.57970
O376        O  0.37879775  0.95391212  0.74313413    -0.83100
H377        H  0.53094614  0.13469181  0.65402338    -0.06820
O378        O  0.42608523  0.14915677  0.62287484    -0.88370
H379        H  0.38549105  0.15799854  0.64956580    -0.06650
H380        H  0.44735238  0.08183155  0.50971163    -0.06820
C381        C  0.40863226  0.15207024  0.65701471     0.86720
C382        C  0.50676951  0.12030120  0.67697841     0.87310
C383        C  0.44484491  0.09695387  0.53909140     0.87360
H384        H  0.33492790  0.04315379  0.68264091    -0.06800
O385        O  0.36763199  0.03009072  0.74860004    -0.75830
Mg386      Mg  0.38626316  0.12184027  0.56698988     1.58000
H387        H  0.38429615  0.07607161  0.78968355    -0.06820
C388        C  0.00339774  0.22666049  0.69938241     0.92340
O389        O  0.49230286  0.20568298  0.55504894    -0.83060
C390        C  0.47071060  0.21028133  0.52532649     0.92400
O391        O  0.50291605  0.08799552  0.81194876    -0.83040
Mg392      Mg  0.37147135  0.99431952  0.68901738     1.58180
O393        O  0.00111430  0.21417835  0.65861535    -0.81380
O394        O  0.34211615  0.46358370  0.57375139    -0.83070
O395        O  0.47951998  0.34571292  0.68374593    -0.88660
C396        C  0.43423625  0.41381812  0.70620677     0.87370
Mg397      Mg  0.49105819  0.32778811  0.61527626     1.58150
O398        O  0.38420042  0.32111268  0.74811672    -0.88390
O399        O  0.46272044  0.32809103  0.75815419    -0.75720
C400        C  0.30453103  0.25511095  0.53073947     0.92420
O401        O  0.47203727  0.40088597  0.61247216    -0.75530
O402        O  0.33560491  0.26288266  0.50756389    -0.83040
Mg403      Mg  0.49778979  0.40507057  0.68827699     1.57960
C404        C  0.27506748  0.25872618  0.70189806     0.92340
O405        O  0.02956492  0.41050533  0.76056227    -0.81300
H406        H  0.38555994  0.27915786  0.78511470    -0.06650
C407        C  0.35854928  0.33724938  0.60800868     0.87280
O408        O  0.44102075  0.26705986  0.62938706    -0.75810
O409        O  0.44745588  0.39350992  0.72033312    -0.88580
O410        O  0.30060813  0.28144013  0.73026650    -0.81390
C411        C  0.36484306  0.39134627  0.80241670     0.92460
C412        C  0.53019792  0.40646470  0.80539610     0.92310
Mg413      Mg  0.33943878  0.26021225  0.64305501     1.57950
O414        O  0.30657529  0.25536729  0.57530669    -0.81310
O415        O  0.36510249  0.26413979  0.71820049    -0.75550
O416        O  0.39995945  0.39703193  0.80845341    -0.81390
O417        O  0.05127737  0.42069563  0.66007806    -0.83100
O418        O  0.44203037  0.27090007  0.51895218    -0.81420
C419        C  0.37805271  0.28788230  0.75202014     0.86750
O420        O  0.39069247  0.27198183  0.61006866    -0.88560
O421        O  0.35931066  0.31993003  0.64442405    -0.88670
O422        O  0.37270246  0.33488030  0.56905739    -0.75720
Mg423      Mg  0.43426116  0.36145020  0.78537485     1.57970
O424        O  0.33980759  0.36329772  0.77831116    -0.83100
H425        H  0.48821279  0.30681131  0.71770728    -0.06820
O426        O  0.45507377  0.34564435  0.57843195    -0.88370
H427        H  0.45156660  0.38788544  0.54518001    -0.06650
H428        H  0.38610627  0.22228138  0.63005248    -0.06820
C429        C  0.45969457  0.37840705  0.57721057     0.87260
C430        C  0.47741282  0.32622830  0.71938656     0.87310
C431        C  0.40488468  0.25231402  0.62289997     0.87360
H432        H  0.34559729  0.35497614  0.60932332    -0.06800
O433        O  0.39862164  0.39966659  0.69618721    -0.75830
Mg434      Mg  0.40288293  0.30224480  0.54378646     1.58000
H435        H  0.45370774  0.44387756  0.70004052    -0.06820
C436        C  0.06584733  0.41100902  0.62871344     0.92340
O437        O  0.50237451  0.30473128  0.54675981    -0.83060
C438        C  0.47764123  0.27747543  0.52152556     0.92400
O439        O  0.49790348  0.39388085  0.82711894    -0.83040
Mg440      Mg  0.34952859  0.33945853  0.71109183     1.58180
O441        O  0.04519843  0.38608605  0.59857779    -0.81380
O442        O  0.28382109  0.24422671  0.66952560    -0.83070
C443        C  0.31326852  0.40428875  0.83576551     0.00250
C444        C  0.35240187  0.42007583  0.81688657     0.00250
C445        C  0.02921388  0.26549174  0.48238959     0.00250
C446        C  0.49093030  0.25054778  0.50146078     0.00250
C447        C  0.24452857  0.25943740  0.49384071     0.00250
C448        C  0.26228353  0.23784562  0.51158609     0.00250
C449        C  0.23742798  0.48187058  0.48757617     0.00250
C450        C  0.26034284  0.02028095  0.50693349     0.00250
C451        C  0.02115062  0.48271670  0.00276303     0.01970
C452        C  0.03834341  0.01736990  0.02707116     0.01970
C453        C  0.02961727  0.04437680  0.01157436     0.01970
C454        C  0.00106398  0.03630176  0.97804063     0.01970
C455        C  0.48143684  0.00057044  0.95758616     0.01970
C456        C  0.49314693  0.47464956  0.96745830     0.01970
C457        C  0.31961822  0.13086549  0.30835997     0.01970
C458        C  0.35924782  0.14908579  0.31357873     0.01970
C459        C  0.37795318  0.18063444  0.34252227     0.01970
C460        C  0.35653780  0.19249853  0.36775277     0.01970
C461        C  0.31677385  0.17314345  0.36372788     0.01970
C462        C  0.29854504  0.14124801  0.33612402     0.01970
C463        C  0.20406787  0.37576531  0.66109380     0.01970
C464        C  0.16784295  0.37242072  0.66184130     0.01970
C465        C  0.13489455  0.33634139  0.66452779     0.01970
C466        C  0.13908996  0.30441556  0.66058993     0.01970
C467        C  0.17600476  0.30870842  0.65837890     0.01970
C468        C  0.20752173  0.34422593  0.65268491     0.01970
C469        C  0.16459439  0.40669217  0.65695913    -0.00470
C470        C  0.14882926  0.41458213  0.69478714    -0.12340
C471        C  0.11534037  0.41550639  0.68588353     0.01770
C472        C  0.10579044  0.42101716  0.63856210    -0.00550
C473        C  0.13163647  0.42748602  0.60214580    -0.12280
C474        C  0.16082531  0.41870610  0.61126850     0.01650
H475        H  0.15371807  0.40629024  0.72995647     0.14630
H476        H  0.12497781  0.43220874  0.56611695     0.14630
C477        C  0.18014388  0.41280516  0.57313592     0.36280
C478        C  0.08610435  0.39390500  0.72043914     0.36190
N479        N  0.19630998  0.40644604  0.54473786    -0.44060
N480        N  0.06375910  0.37206185  0.74658055    -0.44060
C481        C  0.18534403  0.28000462  0.67576331    -0.00470
C482        C  0.20002702  0.28418895  0.72225804    -0.12340
C483        C  0.22566206  0.27149267  0.73422305     0.01770
C484        C  0.23691453  0.25529058  0.69941746    -0.00550
C485        C  0.21733085  0.24574958  0.65559603    -0.12280
C486        C  0.19213736  0.25867938  0.64353394     0.01650
H487        H  0.19421762  0.30016790  0.74748837     0.14630
H488        H  0.22540043  0.23283484  0.62836635     0.14630
C489        C  0.17703900  0.25406591  0.59637971     0.36280
C490        C  0.24323957  0.27759799  0.78036997     0.36190
N491        N  0.16274665  0.24985254  0.55955220    -0.44060
N492        N  0.26106549  0.28102724  0.81443155    -0.44060
C493        C  0.24364550  0.34842756  0.63550555    -0.00470
C494        C  0.27278165  0.35768124  0.66867385    -0.12340
C495        C  0.30634330  0.39149325  0.66041385     0.01770
C496        C  0.31686931  0.40447326  0.61313084    -0.00550
C497        C  0.29071315  0.38472624  0.57621448    -0.12280
C498        C  0.25264524  0.35815471  0.58780681     0.01650
H499        H  0.26448753  0.34918942  0.70519216     0.14630
H500        H  0.29768845  0.39482946  0.53994318     0.14630
C501        C  0.22203380  0.34686585  0.55303120     0.36280
C502        C  0.31257679  0.41776926  0.69702068     0.36190
N503        N  0.19685482  0.33719202  0.52591474    -0.44060
N504        N  0.31078616  0.43644393  0.72597182    -0.44060
C505        C  0.09790170  0.33012191  0.68278224    -0.00470
C506        C  0.09011490  0.31718866  0.72963331    -0.12340
C507        C  0.05521991  0.28425551  0.73953637     0.01770
C508        C  0.02627111  0.26848698  0.70410590    -0.00550
C509        C  0.03074050  0.29000074  0.66267182    -0.12280
C510        C  0.06716267  0.32002206  0.65129582     0.01650
H511        H  0.11440445  0.32544766  0.75387088     0.14630
H512        H  0.00895548  0.27840196  0.63501442     0.14630
C513        C  0.07488328  0.33523880  0.60445562     0.36280
C514        C  0.05855394  0.25853305  0.77118796     0.36190
N515        N  0.08310555  0.34959320  0.56769158    -0.44060
N516        N  0.06119263  0.23306234  0.78479101    -0.44060
C517        C  0.10568923  0.26605632  0.65930957    -0.00470
C518        C  0.10332291  0.24451670  0.69880336    -0.12340
C519        C  0.10321018  0.21104170  0.69278531     0.01770
C520        C  0.09554185  0.19503117  0.64736074    -0.00550
C521        C  0.08537498  0.21171715  0.60995106    -0.12280
C522        C  0.09248171  0.24876955  0.61526400     0.01650
H523        H  0.11654803  0.26000866  0.73103247     0.14630
H524        H  0.07957560  0.19940630  0.57506093     0.14630
C525        C  0.09856952  0.27233799  0.57393865     0.36280
C526        C  0.12752261  0.20574008  0.72664604     0.36190
N527        N  0.10648969  0.29351298  0.54246954    -0.44060
N528        N  0.15088745  0.20717425  0.75273153    -0.44060
C529        C  0.24543639  0.47673358  0.71620471    -0.00470
C530        C  0.23648356  0.44767239  0.74954083    -0.12340
C531        C  0.22970616  0.41256498  0.73377826     0.01770
C532        C  0.23453614  0.40857900  0.68507351    -0.00550
C533        C  0.25517108  0.44064049  0.65666947    -0.12280
C534        C  0.26043927  0.47492425  0.67207683     0.01650
H535        H  0.22649251  0.44934865  0.78421886     0.14630
H536        H  0.25984025  0.43751286  0.61978246     0.14630
C537        C  0.27051321  0.50441313  0.63750057     0.36280
C538        C  0.20972718  0.37989201  0.76495483     0.36190
N539        N  0.27808288  0.53025633  0.61315970    -0.44060
N540        N  0.19338450  0.35439039  0.79080508    -0.44060
C541        C  0.44523167  0.09947311  0.95913739    -0.00470
C542        C  0.44857492  0.08777643  0.00481074    -0.12340
C543        C  0.46593870  0.06613065  0.01158748     0.01770
C544        C  0.48577327  0.06204772  0.97363845    -0.00550
C545        C  0.98759703  0.07909890  0.92976478    -0.12280
C546        C  0.96415253  0.09459387  0.92141177     0.01650
H547        H  0.43380356  0.09151281  0.03383748     0.14630
H548        H  0.00337222  0.07603129  0.90126686     0.14630
C549        C  0.95518261  0.10128285  0.87406089     0.36280
C550        C  0.45867986  0.04462259  0.05530300     0.36190
N551        N  0.94641692  0.10891274  0.83814105    -0.44060
N552        N  0.45254831  0.02678190  0.08985484    -0.44060
C553        C  0.03555351  0.38841651  0.02273096    -0.00470
C554        C  0.04818419  0.40973269  0.98076668    -0.12340
C555        C  0.04578505  0.44235037  0.97567825     0.01770
C556        C  0.03010503  0.45276301  0.01221538    -0.00550
C557        C  0.51169184  0.42750897  0.04982195    -0.12280
C558        C  0.51050069  0.39314950  0.05142289     0.01650
H559        H  0.06562772  0.40531703  0.95630825     0.14630
H560        H  0.49367652  0.43207851  0.07365228     0.14630
C561        C  0.47291111  0.36142688  0.05834666     0.36280
C562        C  0.06295963  0.46755990  0.93593877     0.36190
N563        N  0.44188993  0.33581004  0.05962489    -0.44060
N564        N  0.07649123  0.49048269  0.90654763    -0.44060
C565        C  0.05243785  0.08288482  0.02675633    -0.00470
C566        C  0.04556255  0.09273772  0.07101970    -0.12340
C567        C  0.06052736  0.13066848  0.08047623     0.01770
C568        C  0.08595411  0.15742083  0.04853149    -0.00550
C569        C  0.09311190  0.14752618  0.00492794    -0.12280
C570        C  0.07651677  0.11017196  0.99355564     0.01650
H571        H  0.02685684  0.07122457  0.09623864     0.14630
H572        H  0.11243156  0.16887582  0.98061944     0.14630
C573        C  0.08682170  0.10007677  0.94979393     0.36280
C574        C  0.04485906  0.14268356  0.11683390     0.36190
N575        N  0.09600188  0.09140375  0.91599745    -0.44060
N576        N  0.03260705  0.15550771  0.14254801    -0.44060
C577        C  0.46525390  0.43466268  0.95842947    -0.00470
C578        C  0.44262090  0.41551744  0.99689589    -0.12340
C579        C  0.41370188  0.37912422  0.99402548     0.01770
C580        C  0.40866669  0.35953513  0.95193253    -0.00550
C581        C  0.42927277  0.37906240  0.91119885    -0.12280
C582        C  0.45726951  0.41763347  0.91419288     0.01650
H583        H  0.44759840  0.42976464  0.03029267     0.14630
H584        H  0.42379254  0.36431267  0.87805885     0.14630
C585        C  0.47696028  0.43945231  0.87282612     0.36280
C586        C  0.39269186  0.36441370  0.03728728     0.36190
N587        N  0.49303988  0.45714384  0.83968813    -0.44060
N588        N  0.38181714  0.35861305  0.07578619    -0.44060
C589        C  0.44088006  0.98563573  0.94608809    -0.00470
C590        C  0.41671524  0.47302725  0.98520380    -0.12340
C591        C  0.38680559  0.47984841  0.98752603     0.01770
C592        C  0.38295882  0.00126717  0.95040022    -0.00550
C593        C  0.40086703  0.00533551  0.90668200    -0.12280
C594        C  0.43020015  0.99651033  0.90434118     0.01650
H595        H  0.42649378  0.46703638  0.01838855     0.14630
H596        H  0.39642761  0.02070370  0.87767828     0.14630
C597        C  0.45533692  0.00725581  0.86424145     0.36280
C598        C  0.36897696  0.47357501  0.03330581     0.36190
N599        N  0.47579135  0.01513747  0.83242562    -0.44060
N600        N  0.35782657  0.46901963  0.07164615    -0.44060
C601        C  0.11077709  0.49290243  0.05085094    -0.00470
C602        C  0.08681836  0.98339711  0.09043106    -0.12340
C603        C  0.06596680  0.00235686  0.09590861     0.01770
C604        C  0.07043999  0.52886346  0.06124093    -0.00550
C605        C  0.10605976  0.54878509  0.03925091    -0.12280
C606        C  0.12183109  0.52725652  0.02576221     0.01650
H607        H  0.08017349  0.95841732  0.11199294     0.14630
H608        H  0.11346845  0.57428756  0.01897275     0.14630
C609        C  0.14094885  0.53757087  0.98089612     0.36280
C610        C  0.03450796  0.98931500  0.12885783     0.36190
N611        N  0.15257729  0.54754363  0.94309249    -0.44060
N612        N  0.00933002  0.97955518  0.15511003    -0.44060
C613        C  0.30099464  0.09221183  0.29510687    -0.00470
C614        C  0.29624189  0.06848693  0.33314468    -0.12340
C615        C  0.29148798  0.03405545  0.32508392     0.01770
C616        C  0.27831078  0.01821639  0.28013859    -0.00550
C617        C  0.27805265  0.04105532  0.24195283    -0.12280
C618        C  0.29269810  0.07955507  0.24882227     0.01650
H619        H  0.30502107  0.08030950  0.36847478     0.14630
H620        H  0.26954524  0.02956075  0.20681034     0.14630
C621        C  0.30147483  0.10568524  0.20936986     0.36280
C622        C  0.31540712  0.02692295  0.35695488     0.36190
N623        N  0.30942883  0.12715392  0.17807179    -0.44060
N624        N  0.33629952  0.02599363  0.38525143    -0.44060
C625        C  0.39195585  0.30613796  0.38351839    -0.00470
C626        C  0.39942825  0.28778250  0.42192946    -0.12340
C627        C  0.38751064  0.24933483  0.41859875     0.01770
C628        C  0.37353700  0.23238519  0.37536992    -0.00550
C629        C  0.36898488  0.25148197  0.33708330    -0.12280
C630        C  0.37294428  0.28590773  0.34263176     0.01650
H631        H  0.41103606  0.30235200  0.45496738     0.14630
H632        H  0.35610804  0.23646810  0.30448783     0.14630
C633        C  0.34875190  0.29272578  0.31025608     0.36280
C634        C  0.38501998  0.22616280  0.45903944     0.36190
N635        N  0.32666689  0.29193656  0.28242486    -0.44060
N636        N  0.38163617  0.20611505  0.49060777    -0.44060
C637        C  0.25815347  0.11410563  0.34511274    -0.00470
C638        C  0.24904121  0.09796786  0.39018881    -0.12340
C639        C  0.21105003  0.07675614  0.40262095     0.01770
C640        C  0.18225443  0.06593886  0.36784280    -0.00550
C641        C  0.19218725  0.07730938  0.32069780    -0.12280
C642        C  0.23005704  0.10300940  0.30959168     0.01650
H643        H  0.27154072  0.10536958  0.41676041     0.14630
H644        H  0.17035061  0.07036092  0.29407000     0.14630
C645        C  0.23945949  0.12084018  0.26370197     0.36280
C646        C  0.20251135  0.07642754  0.45118110     0.36190
N647        N  0.24887534  0.13703253  0.22801443    -0.44060
N648        N  0.19527010  0.07898906  0.48943838    -0.44060
C649        C  0.41755154  0.20925852  0.33179564    -0.00470
C650        C  0.42188772  0.23291984  0.29314087    -0.12340
C651        C  0.45436579  0.26811142  0.28991193     0.01770
C652        C  0.48727720  0.27426996  0.31519940    -0.00550
C653        C  0.48263964  0.25176505  0.35555909    -0.12280
C654        C  0.44725457  0.21982381  0.36499983     0.01650
H655        H  0.39770560  0.22610655  0.26934249     0.14630
H656        H  0.50726307  0.25550952  0.37535564     0.14630
C657        C  0.44379988  0.19473819  0.40341870     0.36280
C658        C  0.44667808  0.29841114  0.28111643     0.36190
N659        N  0.44156191  0.17315970  0.43226731    -0.44060
N660        N  0.43846447  0.32187281  0.27777202    -0.44060
C661        C  0.21756625  0.16973869  0.37794131    -0.00470
C662        C  0.23772366  0.17328032  0.42071792    -0.12340
C663        C  0.27601130  0.18215822  0.41980600     0.01770
C664        C  0.29394398  0.19081956  0.37609872    -0.00550
C665        C  0.27796591  0.20055668  0.33750050    -0.12280
C666        C  0.23878610  0.18759580  0.33667543     0.01650
H667        H  0.22181021  0.16039694  0.45268514     0.14630
H668        H  0.29278718  0.20834490  0.30396266     0.14630
C669        C  0.22230514  0.18767754  0.29086148     0.36280
C670        C  0.29108676  0.16980969  0.45886658     0.36190
N671        N  0.21219793  0.18988941  0.25285452    -0.44060
N672        N  0.30177961  0.15782217  0.48945368    -0.44060
C673        C  0.38224760  0.13526491  0.29063243    -0.00470
C674        C  0.39676045  0.15342356  0.24726444    -0.12340
C675        C  0.43655320  0.17599051  0.24325032     0.01770
C676        C  0.46052636  0.17327099  0.27829308    -0.00550
C677        C  0.44476016  0.14711916  0.31541176    -0.12280
C678        C  0.40509959  0.12652690  0.32113560     0.01650
H679        H  0.37885247  0.16034676  0.22459114     0.14630
H680        H  0.46286338  0.14842577  0.34476740     0.14630
C681        C  0.39157763  0.11010759  0.36746309     0.36280
C682        C  0.45184916  0.21059601  0.21480819     0.36190
N683        N  0.38239832  0.09967395  0.40595880    -0.44060
N684        N  0.46826158  0.24085560  0.19824152    -0.44060
O685        O  0.02493812  0.64737231  0.31440218    -0.88660
C686        C  0.10010545  0.67254814  0.21172066     0.87370
Mg687      Mg  0.02627171  0.68302669  0.37162751     1.58150
O688        O  0.08347886  0.60696642  0.30292025    -0.88390
O689        O  0.99940523  0.58783639  0.29456829    -0.75720
C690        C  0.20175865  0.73903028  0.47506556     0.92420
O691        O  0.09148009  0.72431180  0.27992548    -0.75530
O692        O  0.18142495  0.75607933  0.47233567    -0.83040
Mg693      Mg  0.03823761  0.67472425  0.24181711     1.57960
C694        C  0.17770673  0.63817765  0.37713137     0.92340
O695        O  0.47722581  0.62339940  0.20712950    -0.81300
H696        H  0.04164424  0.56351362  0.33936350    -0.06650
C697        C  0.17126842  0.71817478  0.34712437     0.87280
O698        O  0.03573776  0.65073631  0.43204387    -0.75810
O699        O  0.06875618  0.64870444  0.22896155    -0.88580
O700        O  0.15975551  0.62218189  0.34004170    -0.81390
C701        C  0.12623033  0.59551655  0.19987791     0.92460
C702        C  0.46430366  0.59041631  0.18829004     0.92310
Mg703      Mg  0.13085103  0.65603426  0.42092307     1.57950
O704        O  0.18755489  0.70565674  0.45787839    -0.81310
O705        O  0.07954912  0.60550008  0.38211427    -0.75550
O706        O  0.08998158  0.58559140  0.19375791    -0.81390
O707        O  0.51737254  0.71487025  0.24154570    -0.83100
O708        O  0.07943709  0.74881315  0.46675598    -0.81420
C709        C  0.06773853  0.59098223  0.34108645     0.86750
O710        O  0.09890329  0.68170238  0.43445817    -0.88560
O711        O  0.14444759  0.68495626  0.34987139    -0.88670
O712        O  0.17136522  0.74394709  0.37095803    -0.75720
Mg713      Mg  0.04258111  0.59008482  0.24279280     1.57970
O714        O  0.14686584  0.61758767  0.23249246    -0.83100
H715        H  0.97823852  0.60482669  0.34635536    -0.06820
O716        O  0.08701342  0.72444634  0.35913093    -0.88370
H717        H  0.13056432  0.76587815  0.32221897    -0.06650
H718        H  0.06716233  0.64474387  0.48538141    -0.06820
C719        C  0.10357380  0.73919073  0.32079471     0.86720
C720        C  0.99997977  0.61341467  0.31956650     0.87310
C721        C  0.06749079  0.65951652  0.45290111     0.87360
H722        H  0.19498509  0.72590768  0.32382900    -0.06800
O723        O  0.13157860  0.68318593  0.23372765    -0.75830
Mg724      Mg  0.12636146  0.74148457  0.41947500     1.58000
H725        H  0.10053422  0.68824954  0.18018944    -0.06820
C726        C  0.50046198  0.70319287  0.27974520     0.92340
O727        O  0.02260179  0.71864760  0.42901344    -0.83060
C728        C  0.04371700  0.74079485  0.46128540     0.92400
O729        O  0.98677387  0.57548998  0.18835408    -0.83040
Mg730      Mg  0.14362303  0.65148694  0.29062953     1.58180
O731        O  0.51974700  0.71634089  0.31694298    -0.81380
O732        O  0.16101060  0.62442300  0.41535959    -0.83070
C733        C  0.14308953  0.57345874  0.17874391     0.00250
C734        C  0.18149771  0.59201815  0.15943647     0.00250
C735        C  0.42081504  0.56737611  0.17070362     0.00250
C736        C  0.39893152  0.58536386  0.15413116     0.00250
O737        O  0.04167781  0.85970919  0.34468695    -0.88660
C738        C  0.15541179  0.90737630  0.37347072     0.87370
Mg739      Mg  0.01537085  0.85458370  0.27516760     1.58150
O740        O  0.10076493  0.94441434  0.41611313    -0.88390
O741        O  0.03492497  0.86454648  0.42069558    -0.75720
C742        C  0.12060986  0.03421101  0.20296024     0.92420
O743        O  0.10879914  0.87338042  0.27580079    -0.75530
O744        O  0.09927042  0.00339074  0.18088977    -0.83040
Mg745      Mg  0.08482212  0.84157016  0.34720893     1.57960
C746        C  0.14227206  0.54734770  0.38182745     0.92340
O747        O  0.05471648  0.80639242  0.41469972    -0.81300
H748        H  0.05210433  0.93425262  0.44802128    -0.06650
C749        C  0.15005536  0.98401929  0.28571605     0.87280
O750        O  0.99745907  0.89837092  0.29207978    -0.75810
O751        O  0.12072543  0.89024096  0.38421760    -0.88580
O752        O  0.13082620  0.52125816  0.41219432    -0.81390
C753        C  0.19437031  0.96770318  0.47584607     0.92460
C754        C  0.05407659  0.80506181  0.45963000     0.92310
Mg755      Mg  0.08623569  0.99781677  0.31536376     1.57950
O756        O  0.11728468  0.53382275  0.24783400    -0.81310
O757        O  0.06072775  0.96308975  0.38557391    -0.75550
O758        O  0.16816426  0.93184307  0.47365989    -0.81390
O759        O  0.05162955  0.78839398  0.30809717    -0.83100
O760        O  0.00090399  0.90494535  0.18573842    -0.81420
C761        C  0.07082777  0.94690489  0.41793282     0.86750
O762        O  0.05150237  0.95027213  0.27657656    -0.88560
O763        O  0.12963579  0.98064729  0.32007446    -0.88670
O764        O  0.13559184  0.97161292  0.24481400    -0.75720
Mg765      Mg  0.09839526  0.89620351  0.44879401     1.57970
O766        O  0.18558473  0.99248704  0.46189885    -0.83100
H767        H  0.98972298  0.83953074  0.37432813    -0.06820
O768        O  0.06902685  0.89277021  0.24730504    -0.88370
H769        H  0.11495383  0.89955350  0.21187334    -0.06650
H770        H  0.00364055  0.95106937  0.29419518    -0.06820
C771        C  0.09775564  0.88861065  0.24345702     0.86720
C772        C  0.02076452  0.85398143  0.37930994     0.87310
C773        C  0.01698076  0.93420503  0.28719258     0.87360
H774        H  0.18107703  0.99778360  0.29061272    -0.06800
O775        O  0.17483236  0.94354190  0.37115446    -0.75830
Mg776      Mg  0.07284479  0.94102459  0.21362963     1.58000
H777        H  0.16919114  0.89123798  0.36474633    -0.06820
C778        C  0.52410162  0.79091513  0.29030409     0.92340
O779        O  0.48728274  0.84668869  0.20446720    -0.83060
C780        C  0.47595438  0.86837682  0.18706082     0.92400
O781        O  0.07890547  0.83477234  0.48178650    -0.83040
Mg782      Mg  0.15505166  0.98555291  0.39064869     1.58180
O783        O  0.53111659  0.81309607  0.25570895    -0.81380
O784        O  0.11802414  0.55044764  0.35631798    -0.83070
O785        O  0.32304943  0.85735110  0.35739977    -0.88660
C786        C  0.33912731  0.93834778  0.44573319     0.87370
Mg787      Mg  0.36212191  0.86024496  0.30107662     1.58150
O788        O  0.26593413  0.90238536  0.35712686    -0.88390
O789        O  0.26239938  0.82922395  0.37960295    -0.75720
C790        C  0.40003177  0.52334094  0.18342802     0.92420
O791        O  0.39876622  0.92763267  0.38307791    -0.75530
O792        O  0.41799113  0.00387578  0.18234633    -0.83040
Mg793      Mg  0.34964052  0.87587073  0.42648918     1.57960
C794        C  0.26968410  0.48048914  0.27050449     0.92340
O795        O  0.30090831  0.81774738  0.46326126    -0.81300
H796        H  0.22650411  0.85536464  0.32380964    -0.06650
C797        C  0.37286551  0.99283826  0.30682627     0.87280
O798        O  0.32231522  0.85836040  0.24127399    -0.75810
O799        O  0.31922402  0.90483978  0.43395749    -0.88580
O800        O  0.25851242  0.45542304  0.30249098    -0.81390
C801        C  0.25267274  0.95877048  0.45861270     0.92460
C802        C  0.26705397  0.80297095  0.48097424     0.92310
Mg803      Mg  0.31505930  0.94736216  0.23474687     1.57950
O804        O  0.36550338  0.50688883  0.20007722    -0.81310
O805        O  0.26580607  0.89459788  0.27824622    -0.75550
O806        O  0.25052242  0.92619798  0.47143384    -0.81390
O807        O  0.38172669  0.84621784  0.42708029    -0.83100
O808        O  0.41865098  0.90316155  0.19170427    -0.81420
C809        C  0.25187833  0.88325871  0.32024543     0.86750
O810        O  0.34611679  0.91923782  0.22741660    -0.88560
O811        O  0.33988300  0.96463388  0.30508943    -0.88670
O812        O  0.40100062  0.99416490  0.28493325    -0.75720
Mg813      Mg  0.25808133  0.87369812  0.42493569     1.57970
O814        O  0.26317005  0.97070063  0.41653985    -0.83100
H815        H  0.28376084  0.80447851  0.33777785    -0.06820
O816        O  0.39707060  0.91992292  0.30423206    -0.88370
H817        H  0.43816517  0.96613841  0.33715549    -0.06650
H818        H  0.30686420  0.87960951  0.18464154    -0.06820
C819        C  0.41225920  0.93867843  0.34099768     0.86720
C820        C  0.28979136  0.82947522  0.35705126     0.87310
C821        C  0.32531113  0.88573828  0.21556724     0.87360
H822        H  0.37808131  0.01726933  0.32670857    -0.06800
O823        O  0.33940957  0.96488588  0.42099514    -0.75830
Mg824      Mg  0.40744931  0.95176712  0.23853081     1.58000
H825        H  0.35820684  0.94527619  0.47615795    -0.06820
C826        C  0.39604269  0.84236044  0.39027702     0.92340
O827        O  0.39651788  0.85290954  0.24041411    -0.83060
C828        C  0.41301974  0.86888414  0.20168757     0.92400
O829        O  0.25011022  0.82326503  0.48152522    -0.83040
Mg830      Mg  0.29937806  0.96122993  0.35946058     1.58180
O831        O  0.40521971  0.86568274  0.35628478    -0.81380
O832        O  0.28034725  0.47509541  0.23172356    -0.83070
C833        C  0.43165948  0.84858596  0.17465776     0.00250
C834        C  0.41110992  0.80818066  0.15968109     0.00250
O835        O  0.28806273  0.99388557  0.01892797    -0.88660
C836        C  0.27715000  0.58707025  0.03675992     0.87370
Mg837      Mg  0.30243308  0.97468644  0.95138157     1.58150
O838        O  0.21564209  0.49437791  0.08465778    -0.88390
O839        O  0.28457691  0.98937550  0.09664905    -0.75720
C840        C  0.13270176  0.92468699  0.86222706     0.92420
O841        O  0.30283141  0.55525514  0.94607363    -0.75530
O842        O  0.16001315  0.91951005  0.84642089    -0.83040
Mg843      Mg  0.32700614  0.55250619  0.02286983     1.57960
C844        C  0.12402864  0.96762489  0.03779753     0.92340
O845        O  0.35349383  0.54758672  0.09620431    -0.81300
H846        H  0.21234961  0.94792669  0.11607051    -0.06650
C847        C  0.20653627  0.51554718  0.93794630     0.87280
O848        O  0.25042424  0.91514532  0.96560902    -0.75810
O849        O  0.28519873  0.56333727  0.05304889    -0.88580
O850        O  0.14205490  0.46000544  0.06762124    -0.81390
C851        C  0.19841892  0.56826379  0.13718343     0.92460
C852        C  0.35772166  0.56371424  0.13558996     0.92310
Mg853      Mg  0.16511697  0.94058604  0.97314631     1.57950
O854        O  0.13808632  0.94317255  0.89994869    -0.81310
O855        O  0.18966896  0.93810581  0.04933760    -0.75550
O856        O  0.23342569  0.57328592  0.14403423    -0.81390
O857        O  0.36903775  0.53717075  0.00058182    -0.83100
O858        O  0.26051921  0.92137795  0.85057676    -0.81420
C859        C  0.20636063  0.95997372  0.08471007     0.86750
O860        O  0.20682443  0.92916681  0.94256326    -0.88560
O861        O  0.20481957  0.49856844  0.97569031    -0.88670
O862        O  0.20702989  0.50206049  0.89771157    -0.75720
Mg863      Mg  0.26607004  0.53364785  0.11909920     1.57970
O864        O  0.17625144  0.54372707  0.10729611    -0.83100
H865        H  0.28984903  0.95190897  0.05522007    -0.06820
O866        O  0.27643915  0.99891248  0.91050809    -0.88370
H867        H  0.28033346  0.54567054  0.87916936    -0.06650
H868        H  0.19253714  0.87705847  0.96654693    -0.06820
C869        C  0.28610458  0.53345723  0.91053485     0.86720
C870        C  0.28732215  0.97708717  0.05644305     0.87310
C871        C  0.21527518  0.90567216  0.95847590     0.87360
H872        H  0.20820056  0.54267920  0.93886369    -0.06800
O873        O  0.24224211  0.57764296  0.02797443    -0.75830
Mg874      Mg  0.22566383  0.95838699  0.87606133     1.58000
H875        H  0.29999879  0.61584466  0.02941988    -0.06820
C876        C  0.36775411  0.52558743  0.95980715     0.92340
O877        O  0.31821791  0.95292078  0.88588207    -0.83060
C878        C  0.29643518  0.92845496  0.85591862     0.92400
O879        O  0.33072685  0.56951298  0.15049682    -0.83040
Mg880      Mg  0.19026347  0.51849852  0.04281563     1.58180
O881        O  0.34982453  0.03211185  0.92856945    -0.81380
O882        O  0.12481869  0.95965689  0.99566130    -0.83070
O883        O  0.18423996  0.70776897  0.99199635    -0.88660
C884        C  0.22672516  0.81790840  0.96359252     0.87370
Mg885      Mg  0.18000281  0.67949729  0.05962414     1.58150
O886        O  0.27160262  0.77151902  0.92004052    -0.88390
O887        O  0.19254169  0.70406326  0.91583156    -0.75720
C888        C  0.36916217  0.78459479  0.13711133     0.92420
O889        O  0.20071620  0.77044204  0.06057775    -0.75530
O890        O  0.33825669  0.75907706  0.15899796    -0.83040
Mg891      Mg  0.16376433  0.74820980  0.99003617     1.57960
C892        C  0.38206368  0.81958258  0.95117153     0.92340
O893        O  0.12388914  0.71498131  0.92119969    -0.81300
H894        H  0.26637089  0.72629672  0.88636633    -0.06650
C895        C  0.30456386  0.81133711  0.05654903     0.87280
O896        O  0.22637783  0.66515918  0.03669924    -0.75810
O897        O  0.21101816  0.78458051  0.95017736    -0.88580
O898        O  0.35180329  0.80755601  0.92702425    -0.81390
C899        C  0.29455177  0.86369236  0.85910806     0.92460
C900        C  0.12234239  0.71112084  0.87593716     0.92310
Mg901      Mg  0.32973449  0.75803730  0.02101610     1.57950
O902        O  0.36715844  0.78571244  0.09180285    -0.81310
O903        O  0.29604201  0.73585097  0.94858973    -0.75550
O904        O  0.25778189  0.83709478  0.85664490    -0.81390
O905        O  0.11186181  0.72010065  0.03558429    -0.83100
O906        O  0.23509914  0.66127934  0.14433017    -0.81420
C907        C  0.27758513  0.74416348  0.91703976     0.86750
O908        O  0.28103684  0.71626523  0.05706674    -0.88560
O909        O  0.30387462  0.79407251  0.02064608    -0.88670
O910        O  0.29814802  0.79601032  0.09780471    -0.75720
Mg911      Mg  0.22036748  0.76559498  0.88596547     1.57970
O912        O  0.31789770  0.85814642  0.88482844    -0.83100
H913        H  0.17025682  0.65862072  0.96106410    -0.06820
O914        O  0.22065598  0.73090158  0.09012057    -0.88370
H915        H  0.22957015  0.77787086  0.12304717    -0.06650
H916        H  0.27946117  0.67062839  0.02918168    -0.06820
C917        C  0.21725451  0.75998333  0.09254835     0.86720
C918        C  0.18192621  0.68895321  0.95682808     0.87310
C919        C  0.26320683  0.68354478  0.04101418     0.87360
H920        H  0.31214770  0.84084501  0.05296100    -0.06800
O921        O  0.26299853  0.83746528  0.97086086    -0.75830
Mg922      Mg  0.27131736  0.73332584  0.12345484     1.58000
H923        H  0.20879129  0.82977228  0.97202263    -0.06820
C924        C  0.11103381  0.69492794  0.06266560     0.92340
O925        O  0.17370848  0.64344644  0.12636816    -0.83060
C926        C  0.19841860  0.63479010  0.14306035     0.92400
O927        O  0.15301775  0.73458807  0.85204105    -0.83040
Mg928      Mg  0.30965321  0.82352331  0.95210616     1.58180
O929        O  0.14062519  0.70099311  0.08623022    -0.81380
O930        O  0.38369395  0.79971877  0.98482987    -0.83070
O931        O  0.50836415  0.80586071  0.98635922    -0.88660
C932        C  0.07562320  0.76196506  0.96518373     0.87370
Mg933      Mg  0.48754705  0.80667705  0.05705422     1.58150
O934        O  0.98227706  0.72181360  0.92096028    -0.88390
O935        O  0.49592936  0.80079501  0.91002061    -0.75720
C936        C  0.41396510  0.62470689  0.12958907     0.92420
O937        O  0.06365971  0.79435934  0.05737002    -0.75530
O938        O  0.41826246  0.65440644  0.15043525    -0.83040
Mg939      Mg  0.07076951  0.82761795  0.98540098     1.57960
C940        C  0.42134074  0.61610685  0.95017389     0.92340
O941        O  0.07470090  0.86247814  0.91412541    -0.81300
H942        H  0.44261617  0.73097469  0.88792619    -0.06650
C943        C  0.99268464  0.67929511  0.04915827     0.87280
O944        O  0.42505653  0.76138232  0.03815574    -0.75810
O945        O  0.05899680  0.77924218  0.95054125    -0.88580
O946        O  0.93467713  0.64500111  0.92427323    -0.81390
C947        C  0.05327665  0.69743599  0.86807032     0.92460
C948        C  0.07415144  0.86300414  0.86874080     0.92310
Mg949      Mg  0.41397428  0.66199583  0.01733342     1.57950
O950        O  0.41303707  0.62503259  0.08433013    -0.81310
O951        O  0.42205135  0.69869260  0.94786766    -0.75550
O952        O  0.06386195  0.73346890  0.87116748    -0.81390
O953        O  0.09001902  0.88125058  0.02462679    -0.83100
O954        O  0.42144267  0.75255086  0.14283476    -0.81420
C955        C  0.44905470  0.71778539  0.91771071     0.86750
O956        O  0.42521469  0.70864220  0.05490767    -0.88560
O957        O  0.97554507  0.68429508  0.01523846    -0.88670
O958        O  0.99047381  0.68941986  0.09060259    -0.75720
Mg959      Mg  0.02828294  0.76965377  0.88615921     1.57970
O960        O  0.01902602  0.67313304  0.87905938    -0.83100
H961        H  0.47561775  0.82495543  0.95509434    -0.06820
O962        O  0.50286839  0.76770147  0.08228092    -0.88370
H963        H  0.04432800  0.76372432  0.11872160    -0.06650
H964        H  0.37724106  0.70896179  0.03359334    -0.06820
C965        C  0.03696465  0.77480590  0.08751739     0.86720
C966        C  0.49246756  0.81108602  0.95107094     0.87310
C967        C  0.40768701  0.72538038  0.04246674     0.87360
H968        H  0.00989231  0.66607909  0.04332447    -0.06800
O969        O  0.05802591  0.72572765  0.96888532    -0.75830
Mg970      Mg  0.45735644  0.71809475  0.11702627     1.58000
H971        H  0.10566227  0.77814097  0.97600172    -0.06820
C972        C  0.05953515  0.87450486  0.04454580     0.92340
O973        O  0.46863705  0.81089730  0.12990724    -0.83060
C974        C  0.43488152  0.78910653  0.14504097     0.92400
O975        O  0.06805050  0.83241441  0.84770200    -0.83040
Mg976      Mg  0.99576085  0.68126457  0.94724672     1.58180
O977        O  0.54656615  0.84959218  0.07677684    -0.81380
O978        O  0.39437528  0.60925877  0.97730821    -0.83070
O979        O  0.15020561  0.52284573  0.69206649    -0.88660
C980        C  0.17547422  0.60054114  0.79229568     0.87370
Mg981      Mg  0.18114294  0.52095963  0.63109927     1.58150
O982        O  0.10270706  0.58079787  0.70742638    -0.88390
O983        O  0.09018178  0.50297022  0.71224064    -0.75720
C984        C  0.23771537  0.69663586  0.53263469     0.92420
O985        O  0.23054625  0.58415304  0.72313903    -0.75530
O986        O  0.25157092  0.67365962  0.53457727    -0.83040
Mg987      Mg  0.17833795  0.53440991  0.76147215     1.57960
C988        C  0.10680580  0.66703329  0.63797281     0.92340
O989        O  0.12721913  0.97937789  0.79615890    -0.81300
H990        H  0.05688395  0.54157434  0.67117351    -0.06650
C991        C  0.21329721  0.66232237  0.66644800     0.87280
O992        O  0.14491642  0.53397462  0.58059989    -0.75810
O993        O  0.15256125  0.56884454  0.77606247    -0.88580
O994        O  0.09870844  0.64146437  0.66861070    -0.81390
C995        C  0.08707651  0.62475076  0.81328513     0.92460
C996        C  0.09393381  0.96633965  0.81469680     0.92310
Mg997      Mg  0.15259452  0.63263815  0.59117920     1.57950
O998        O  0.20542557  0.68672120  0.55277540    -0.81310
O999        O  0.09870011  0.58114410  0.62842105    -0.75550
O1000       O  0.07918694  0.58941208  0.82084983    -0.81390
O1001       O  0.21041206  0.00165869  0.75543508    -0.83100
O1002       O  0.25030256  0.57428417  0.53510952    -0.81420
C1003       C  0.08507010  0.56694601  0.66946295     0.86750
O1004       O  0.17500740  0.59615012  0.57686243    -0.88560
O1005       O  0.17832074  0.64090731  0.66029105    -0.88670
O1006       O  0.23843212  0.66006234  0.64216885    -0.75720
Mg1007     Mg  0.09022564  0.54312163  0.76728980     1.57970
O1008       O  0.10685239  0.64166021  0.77781816    -0.83100
H1009       H  0.10578616  0.48208594  0.65861356    -0.06820
O1010       O  0.22527984  0.57934175  0.64415531    -0.88370
H1011       H  0.27229075  0.61934530  0.67749106    -0.06650
H1012       H  0.12740721  0.56361848  0.53865496    -0.06820
C1013       C  0.24381737  0.59459433  0.68116714     0.86720
C1014       C  0.11516666  0.50139223  0.68696756     0.87310
C1015       C  0.14859829  0.56475475  0.56402655     0.87360
H1016       H  0.22261493  0.68301357  0.69391464    -0.06800
O1017       O  0.17923325  0.63101143  0.77364052    -0.75830
Mg1018     Mg  0.23778623  0.61923925  0.58652321     1.58000
H1019       H  0.19432509  0.60245194  0.82141775    -0.06820
C1020       C  0.22300876  0.99640607  0.71747523     0.92340
O1021       O  0.21403472  0.51570100  0.56547296    -0.83060
C1022       C  0.23947111  0.53792302  0.53546865     0.92400
O1023       O  0.07798122  0.48761731  0.81587729    -0.83040
Mg1024     Mg  0.14170680  0.63894918  0.71771195     1.58180
O1025       O  0.21251903  0.00343201  0.67811466    -0.81380
O1026       O  0.12856283  0.67126627  0.60386478    -0.83070
C1027       C  0.08120696  0.68320256  0.85370865     0.00250
C1028       C  0.06544340  0.64460035  0.83417102     0.00250
C1029       C  0.09096602  0.90314444  0.84470342     0.00250
C1030       C  0.07108388  0.92350129  0.82897869     0.00250
O1031       O  0.48173859  0.62975729  0.67550201    -0.88660
C1032       C  0.39269033  0.56272640  0.76353467     0.87370
Mg1033     Mg  0.48576449  0.66559032  0.61475650     1.58150
O1034       O  0.42960225  0.52575208  0.68324761    -0.88390
O1035       O  0.50425001  0.59341929  0.70366593    -0.75720
C1036       C  0.30538774  0.54153836  0.51707243     0.92420
O1037       O  0.41348440  0.64423336  0.69968431    -0.75530
O1038       O  0.32669329  0.57883513  0.51742394    -0.83040
Mg1039     Mg  0.46094633  0.64014279  0.74105404     1.57960
C1040       C  0.34750445  0.94344558  0.60420718     0.92340
O1041       O  0.01479712  0.64488322  0.78502058    -0.81300
H1042       H  0.47487588  0.52968537  0.64875153    -0.06650
C1043       C  0.35162616  0.55202053  0.65067633     0.87280
O1044       O  0.47527799  0.62142102  0.56000513    -0.75810
O1045       O  0.42646025  0.57888611  0.74923465    -0.88580
O1046       O  0.37567557  0.95869789  0.63250375    -0.81390
C1047       C  0.37721643  0.45818464  0.78695869     0.92460
C1048       C  0.02496627  0.62473229  0.81050237     0.92310
Mg1049     Mg  0.37844947  0.52693983  0.56624209     1.57950
O1050       O  0.32010139  0.52169284  0.53318647    -0.81310
O1051       O  0.43358757  0.52880411  0.60414260    -0.75550
O1052       O  0.40001740  0.49265856  0.80155856    -0.81390
O1053       O  0.99186056  0.70440877  0.73515229    -0.83100
O1054       O  0.43382902  0.68394405  0.52105812    -0.81420
C1055       C  0.44714701  0.52825982  0.64592965     0.86750
O1056       O  0.41237622  0.58741940  0.55403921    -0.88560
O1057       O  0.36670547  0.53368792  0.63763088    -0.88670
O1058       O  0.35314508  0.57984742  0.62705072    -0.75720
Mg1059     Mg  0.45668449  0.54831556  0.75141768     1.57970
O1060       O  0.37879612  0.45391319  0.74313429    -0.83100
H1061       H  0.53094536  0.63469223  0.65402451    -0.06820
O1062       O  0.42608465  0.64915770  0.62287531    -0.88370
H1063       H  0.38549092  0.65800013  0.64956633    -0.06650
H1064       H  0.44735088  0.58183190  0.50971208    -0.06820
C1065       C  0.40863203  0.65207167  0.65701519     0.86720
C1066       C  0.50676855  0.62030152  0.67697925     0.87310
C1067       C  0.44484359  0.59695426  0.53909193     0.87360
H1068       H  0.33492628  0.54315473  0.68264119    -0.06800
O1069       O  0.36763049  0.53009190  0.74860017    -0.75830
Mg1070     Mg  0.38626229  0.62184115  0.56699039     1.58000
H1071       H  0.38429477  0.57607305  0.78968321    -0.06820
C1072       C  0.00339930  0.72666148  0.69938350     0.92340
O1073       O  0.49230258  0.70568341  0.55504941    -0.83060
C1074       C  0.47071044  0.71028187  0.52532689     0.92400
O1075       O  0.50291420  0.58799544  0.81194981    -0.83040
Mg1076     Mg  0.37146959  0.49432033  0.68901777     1.58180
O1077       O  0.00111482  0.71417897  0.65861641    -0.81380
O1078       O  0.34211781  0.96358309  0.57375096    -0.83070
O1079       O  0.47952176  0.84571304  0.68374631    -0.88660
C1080       C  0.43423761  0.91381747  0.70620776     0.87370
Mg1081     Mg  0.49105927  0.82778841  0.61527614     1.58150
O1082       O  0.38420243  0.82111189  0.74811727    -0.88390
O1083       O  0.46272279  0.82809090  0.75815465    -0.75720
C1084       C  0.30453106  0.75511089  0.53074023     0.92420
O1085       O  0.47203872  0.90088628  0.61247306    -0.75530
O1086       O  0.33560506  0.76288332  0.50756435    -0.83040
Mg1087     Mg  0.49779162  0.90507065  0.68827764     1.57960
C1088       C  0.27506881  0.75872515  0.70189949     0.92340
O1089       O  0.02956700  0.91050528  0.76056278    -0.81300
H1090       H  0.38556257  0.77915711  0.78511459    -0.06650
C1091       C  0.35854968  0.83724876  0.60801024     0.87280
O1092       O  0.44102184  0.76706016  0.62938683    -0.75810
O1093       O  0.44745772  0.89350966  0.72033406    -0.88580
O1094       O  0.30060971  0.78143875  0.73026800    -0.81390
C1095       C  0.36484488  0.89134530  0.80241761     0.92460
C1096       C  0.53020027  0.90646450  0.80539655     0.92310
Mg1097     Mg  0.33943958  0.76021135  0.64305563     1.57950
O1098       O  0.30657544  0.75536655  0.57530750    -0.81310
O1099       O  0.36510418  0.76413901  0.71820070    -0.75550
O1100       O  0.39996141  0.89703129  0.80845393    -0.81390
O1101       O  0.05127923  0.92069587  0.66007827    -0.83100
O1102       O  0.44203061  0.77090055  0.51895197    -0.81420
C1103       C  0.37805488  0.78788153  0.75202035     0.86750
O1104       O  0.39069317  0.77198159  0.61006861    -0.88560
O1105       O  0.35931129  0.81992912  0.64442520    -0.88670
O1106       O  0.37270290  0.83488027  0.56905869    -0.75720
Mg1107     Mg  0.43426326  0.86144967  0.78537555     1.57970
O1108       O  0.33980922  0.86329615  0.77831310    -0.83100
H1109       H  0.48821533  0.80681176  0.71770722    -0.06820
O1110       O  0.45507444  0.84564459  0.57843263    -0.88370
H1111       H  0.45156737  0.88788590  0.54518114    -0.06650
H1112       H  0.38610755  0.72228135  0.63005213    -0.06820
C1113       C  0.45969549  0.87840738  0.57721148     0.87260
C1114       C  0.47741509  0.82622847  0.71938680     0.87310
C1115       C  0.40488573  0.75231404  0.62289971     0.87360
H1116       H  0.34559752  0.85497531  0.60932551    -0.06800
O1117       O  0.39862287  0.89966557  0.69618861    -0.75830
Mg1118     Mg  0.40288338  0.80224516  0.54378689     1.58000
H1119       H  0.45370879  0.94387694  0.70004125    -0.06820
C1120       C  0.06584891  0.91100928  0.62871324     0.92340
O1121       O  0.50237492  0.80473192  0.54675924    -0.83060
C1122       C  0.47764149  0.77747597  0.52152524     0.92400
O1123       O  0.49790589  0.89388036  0.82711964    -0.83040
Mg1124     Mg  0.34952989  0.83945740  0.71109337     1.58180
O1125       O  0.04519969  0.88608640  0.59857763    -0.81380
O1126       O  0.28382192  0.74422501  0.66952734    -0.83070
C1127       C  0.31327025  0.90428804  0.83576552     0.00250
C1128       C  0.35240366  0.92007496  0.81688675     0.00250
C1129       C  0.02921417  0.76549221  0.48239007     0.00250
C1130       C  0.49093042  0.75054821  0.50146087     0.00250
C1131       C  0.24452879  0.75943763  0.49384064     0.00250
C1132       C  0.26228346  0.73784576  0.51158684     0.00250
C1133       C  0.23742902  0.98187046  0.48757509     0.00250
C1134       C  0.26034164  0.52028118  0.50693436     0.00250
C1135       C  0.02115153  0.98271408  0.00276300     0.01970
C1136       C  0.03834010  0.51737115  0.02707429     0.01970
C1137       C  0.02961275  0.54437766  0.01157908     0.01970
C1138       C  0.00106041  0.53630298  0.97804408     0.01970
C1139       C  0.48143456  0.50057231  0.95758802     0.01970
C1140       C  0.49314793  0.97464692  0.96745812     0.01970
C1141       C  0.31961767  0.63086406  0.30836196     0.01970
C1142       C  0.35924726  0.64908491  0.31358086     0.01970
C1143       C  0.37795218  0.68063370  0.34252420     0.01970
C1144       C  0.35653625  0.69249729  0.36775449     0.01970
C1145       C  0.31677229  0.67314168  0.36372913     0.01970
C1146       C  0.29854398  0.64124603  0.33612562     0.01970
C1147       C  0.20407003  0.87576585  0.66109291     0.01970
C1148       C  0.16784512  0.87242135  0.66183990     0.01970
C1149       C  0.13489668  0.83634207  0.66452682     0.01970
C1150       C  0.13909208  0.80441619  0.66058981     0.01970
C1151       C  0.17600685  0.80870888  0.65837963     0.01970
C1152       C  0.20752386  0.84422627  0.65268538     0.01970
C1153       C  0.16459653  0.90669278  0.65695726    -0.00470
C1154       C  0.14883196  0.91458326  0.69478541    -0.12340
C1155       C  0.11534292  0.91550738  0.68588237     0.01770
C1156       C  0.10579224  0.92101755  0.63856106    -0.00550
C1157       C  0.13163773  0.92748589  0.60214424    -0.12280
C1158       C  0.16082667  0.91870600  0.61126653     0.01650
H1159       H  0.15372129  0.90629183  0.72995476     0.14630
H1160       H  0.12497851  0.93220811  0.56611545     0.14630
C1161       C  0.18014444  0.91280423  0.57313369     0.36280
C1162       C  0.08610744  0.89390628  0.72043867     0.36190
N1163       N  0.19630986  0.90644440  0.54473544    -0.44060
N1164       N  0.06376261  0.87206328  0.74658057    -0.44060
C1165       C  0.18534596  0.78000496  0.67576414    -0.00470
C1166       C  0.20002893  0.78418919  0.72225890    -0.12340
C1167       C  0.22566395  0.77149286  0.73422387     0.01770
C1168       C  0.23691642  0.75529082  0.69941823    -0.00550
C1169       C  0.21733294  0.74575014  0.65559666    -0.12280
C1170       C  0.19213920  0.75867966  0.64353476     0.01650
H1171       H  0.19421947  0.80016804  0.74748932     0.14630
H1172       H  0.22540252  0.73283544  0.62836692     0.14630
C1173       C  0.17704029  0.75406565  0.59638075     0.36280
C1174       C  0.24324100  0.77759752  0.78037101     0.36190
N1175       N  0.16274759  0.74985178  0.55955339    -0.44060
N1176       N  0.26106631  0.78102608  0.81443296    -0.44060
C1177       C  0.24364746  0.84842751  0.63550613    -0.00470
C1178       C  0.27278365  0.85768135  0.66867439    -0.12340
C1179       C  0.30634522  0.89149332  0.66041405     0.01770
C1180       C  0.31687115  0.90447292  0.61313089    -0.00550
C1181       C  0.29071494  0.88472560  0.57621470    -0.12280
C1182       C  0.25264707  0.85815419  0.58780729     0.01650
H1183       H  0.26448959  0.84918978  0.70519277     0.14630
H1184       H  0.29769017  0.89482851  0.53994328     0.14630
C1185       C  0.22203549  0.84686514  0.55303187     0.36280
C1186       C  0.31257863  0.91776961  0.69702048     0.36190
N1187       N  0.19685627  0.83719110  0.52591572    -0.44060
N1188       N  0.31078813  0.93644448  0.72597147    -0.44060
C1189       C  0.09790398  0.83012275  0.68278170    -0.00470
C1190       C  0.09011758  0.81718967  0.72963288    -0.12340
C1191       C  0.05522276  0.78425644  0.73953638     0.01770
C1192       C  0.02627348  0.76848795  0.70410648    -0.00550
C1193       C  0.03074253  0.79000154  0.66267234    -0.12280
C1194       C  0.06716461  0.82002271  0.65129574     0.01650
H1195       H  0.11440737  0.82544881  0.75387011     0.14630
H1196       H  0.00895710  0.77840283  0.63501538     0.14630
C1197       C  0.07488457  0.83523912  0.60445540     0.36280
C1198       C  0.05855736  0.75853415  0.77118776     0.36190
N1199       N  0.08310614  0.84959316  0.56769112    -0.44060
N1200       N  0.06119734  0.73306428  0.78479139    -0.44060
C1201       C  0.10569133  0.76605707  0.65930954    -0.00470
C1202       C  0.10332523  0.74451733  0.69880309    -0.12340
C1203       C  0.10321149  0.71104193  0.69278460     0.01770
C1204       C  0.09554170  0.69503119  0.64736014    -0.00550
C1205       C  0.08537510  0.71171770  0.60995085    -0.12280
C1206       C  0.09248308  0.74877048  0.61526398     0.01650
H1207       H  0.11655120  0.76000923  0.73103199     0.14630
H1208       H  0.07957497  0.69940678  0.57506071     0.14630
C1209       C  0.09857121  0.77233906  0.57393866     0.36280
C1210       C  0.12752430  0.70573970  0.72664418     0.36190
N1211       N  0.10649157  0.79351403  0.54246949    -0.44060
N1212       N  0.15088931  0.70717285  0.75272860    -0.44060
C1213       C  0.24543884  0.97673433  0.71620361    -0.00470
C1214       C  0.23648621  0.94767324  0.74953980    -0.12340
C1215       C  0.22970847  0.91256573  0.73377718     0.01770
C1216       C  0.23453825  0.90857967  0.68507240    -0.00550
C1217       C  0.25517310  0.94064108  0.65666820    -0.12280
C1218       C  0.26044137  0.97492486  0.67207553     0.01650
H1219       H  0.22649547  0.94934964  0.78421798     0.14630
H1220       H  0.25984202  0.93751335  0.61978112     0.14630
C1221       C  0.27051499  0.00441368  0.63749926     0.36280
C1222       C  0.20972960  0.87989286  0.76495392     0.36190
N1223       N  0.27808451  0.03025702  0.61315872    -0.44060
N1224       N  0.19338702  0.85439135  0.79080434    -0.44060
C1225       C  0.44522738  0.59947319  0.95913692    -0.00470
C1226       C  0.44857026  0.58777707  0.00481068    -0.12340
C1227       C  0.46593442  0.56613180  0.01158878     0.01770
C1228       C  0.48576963  0.56204877  0.97364065    -0.00550
C1229       C  0.98759365  0.57909936  0.92976644    -0.12280
C1230       C  0.96414896  0.59459395  0.92141218     0.01650
H1231       H  0.43379832  0.59151336  0.03383670     0.14630
H1232       H  0.00336924  0.57603160  0.90126912     0.14630
C1233       C  0.95518009  0.60128306  0.87406087     0.36280
C1234       C  0.45867509  0.54462404  0.05530456     0.36190
N1235       N  0.94641539  0.60891335  0.83814064    -0.44060
N1236       N  0.45254316  0.52678343  0.08985651    -0.44060
C1237       C  0.03555380  0.88841396  0.02273689    -0.00470
C1238       C  0.04818256  0.90972771  0.98077086    -0.12340
C1239       C  0.04578328  0.94234504  0.97568034     0.01770
C1240       C  0.03010501  0.95275991  0.01221709    -0.00550
C1241       C  0.51169304  0.92750779  0.04982568    -0.12280
C1242       C  0.51050177  0.89314819  0.05142886     0.01650
H1243       H  0.06562485  0.90531071  0.95631220     0.14630
H1244       H  0.49367827  0.93207848  0.07365559     0.14630
C1245       C  0.47291159  0.86142627  0.05835136     0.36280
C1246       C  0.06295452  0.96755143  0.93593770     0.36190
N1247       N  0.44189013  0.83580984  0.05962811    -0.44060
N1248       N  0.07648237  0.99047226  0.90654391    -0.44060
C1249       C  0.05243333  0.58288585  0.02676052    -0.00470
C1250       C  0.04555803  0.59273969  0.07102328    -0.12340
C1251       C  0.06052420  0.63067081  0.08047921     0.01770
C1252       C  0.08595201  0.65742235  0.04853446    -0.00550
C1253       C  0.09310928  0.64752676  0.00493123    -0.12280
C1254       C  0.07651282  0.61017235  0.99355947     0.01650
H1255       H  0.02685161  0.57122711  0.09624230     0.14630
H1256       H  0.11242954  0.66887585  0.98062247     0.14630
C1257       C  0.08681688  0.60007622  0.94979779     0.36280
C1258       C  0.04485647  0.64268713  0.11683621     0.36190
N1259       N  0.09599590  0.59140243  0.91600098    -0.44060
N1260       N  0.03260492  0.65551191  0.14255008    -0.44060
C1261       C  0.46525439  0.93466008  0.95842970    -0.00470
C1262       C  0.44262193  0.91551505  0.99689658    -0.12340
C1263       C  0.41370214  0.87912212  0.99402628     0.01770
C1264       C  0.40866613  0.85953284  0.95193330    -0.00550
C1265       C  0.42927182  0.87905983  0.91119934    -0.12280
C1266       C  0.45726890  0.91763078  0.91419301     0.01650
H1267       H  0.44759994  0.92976237  0.03029335     0.14630
H1268       H  0.42379093  0.86430999  0.87805931     0.14630
C1269       C  0.47695869  0.93944935  0.87282563     0.36280
C1270       C  0.39269177  0.86441225  0.03728795     0.36190
N1271       N  0.49303735  0.95714045  0.83968696    -0.44060
N1272       N  0.38181681  0.85861218  0.07578674    -0.44060
C1273       C  0.44087768  0.48563682  0.94608981    -0.00470
C1274       C  0.41671776  0.97302633  0.98520222    -0.12340
C1275       C  0.38680900  0.97984876  0.98752532     0.01770
C1276       C  0.38295518  0.50126644  0.95040062    -0.00550
C1277       C  0.40086381  0.50533502  0.90668267    -0.12280
C1278       C  0.43019745  0.49651055  0.90434248     0.01650
H1279       H  0.42649612  0.96703476  0.01838663     0.14630
H1280       H  0.39642427  0.52070296  0.87767873     0.14630
C1281       C  0.45533419  0.50725583  0.86424279     0.36280
C1282       C  0.36898109  0.97357593  0.03330550     0.36190
N1283       N  0.47578855  0.51513731  0.83242692    -0.44060
N1284       N  0.35783127  0.96902103  0.07164608    -0.44060
C1285       C  0.11077873  0.99289883  0.05084831    -0.00470
C1286       C  0.08681486  0.48339745  0.09043245    -0.12340
C1287       C  0.06596203  0.50235581  0.09591142     0.01770
C1288       C  0.07044455  0.02886284  0.06123585    -0.00550
C1289       C  0.10606336  0.04878204  0.03924313    -0.12280
C1290       C  0.12183259  0.02725130  0.02575583     0.01650
H1291       H  0.08017003  0.45841672  0.11199232     0.14630
H1292       H  0.11347148  0.07428299  0.01896182     0.14630
C1293       C  0.14094578  0.03756011  0.98088667     0.36280
C1294       C  0.03450273  0.48931195  0.12886026     0.36190
N1295       N  0.15257005  0.04752708  0.94308031    -0.44060
N1296       N  0.00932437  0.47955078  0.15511213    -0.44060
C1297       C  0.30099485  0.59221059  0.29510867    -0.00470
C1298       C  0.29624290  0.56848576  0.33314629    -0.12340
C1299       C  0.29149082  0.53405502  0.32508520     0.01770
C1300       C  0.27831467  0.51821628  0.28013953    -0.00550
C1301       C  0.27805630  0.54105510  0.24195384    -0.12280
C1302       C  0.29269977  0.57955438  0.24882382     0.01650
H1303       H  0.30502115  0.58030808  0.36847662     0.14630
H1304       H  0.26954885  0.52956062  0.20681132     0.14630
C1305       C  0.30147517  0.60568460  0.20937175     0.36280
C1306       C  0.31540979  0.52692295  0.35695696     0.36190
N1307       N  0.30942811  0.62715329  0.17807386    -0.44060
N1308       N  0.33630155  0.52599342  0.38525431    -0.44060
C1309       C  0.39195542  0.80613728  0.38351828    -0.00470
C1310       C  0.39942737  0.78778187  0.42192982    -0.12340
C1311       C  0.38750899  0.74933397  0.41859997     0.01770
C1312       C  0.37353489  0.73238388  0.37537144    -0.00550
C1313       C  0.36898284  0.75148042  0.33708450    -0.12280
C1314       C  0.37294338  0.78590672  0.34263201     0.01650
H1315       H  0.41103557  0.80235171  0.45496745     0.14630
H1316       H  0.35610591  0.73646631  0.30448920     0.14630
C1317       C  0.34875216  0.79272553  0.31025523     0.36280
C1318       C  0.38501827  0.72616241  0.45904124     0.36190
N1319       N  0.32666791  0.79193678  0.28242317    -0.44060
N1320       N  0.38163446  0.70611525  0.49061028    -0.44060
C1321       C  0.25815245  0.61410322  0.34511406    -0.00470
C1322       C  0.24904010  0.59796583  0.39019028    -0.12340
C1323       C  0.21104888  0.57675538  0.40262284     0.01770
C1324       C  0.18225319  0.56593827  0.36784482    -0.00550
C1325       C  0.19218597  0.57730812  0.32069967    -0.12280
C1326       C  0.23005593  0.60300725  0.30959312     0.01650
H1327       H  0.27153964  0.60536769  0.41676190     0.14630
H1328       H  0.17034929  0.57035986  0.29407198     0.14630
C1329       C  0.23945834  0.62083767  0.26370319     0.36280
C1330       C  0.20251091  0.57642957  0.45118268     0.36190
N1331       N  0.24887380  0.63702957  0.22801533    -0.44060
N1332       N  0.19527137  0.57899460  0.48943949    -0.44060
C1333       C  0.41755044  0.70925818  0.33179743    -0.00470
C1334       C  0.42188646  0.73291922  0.29314236    -0.12340
C1335       C  0.45436464  0.76811074  0.28991286     0.01770
C1336       C  0.48727615  0.77426938  0.31520016    -0.00550
C1337       C  0.48263876  0.75176480  0.35556011    -0.12280
C1338       C  0.44725369  0.71982373  0.36500138     0.01650
H1339       H  0.39770427  0.72610576  0.26934406     0.14630
H1340       H  0.50726227  0.75550932  0.37535654     0.14630
C1341       C  0.44379944  0.69473833  0.40342026     0.36280
C1342       C  0.44667723  0.79841061  0.28111694     0.36190
N1343       N  0.44156205  0.67315998  0.43226874    -0.44060
N1344       N  0.43846396  0.82187252  0.27777233    -0.44060
C1345       C  0.21756461  0.66973794  0.37794119    -0.00470
C1346       C  0.23772202  0.67327991  0.42071793    -0.12340
C1347       C  0.27600937  0.68215692  0.41980607     0.01770
C1348       C  0.29394194  0.69081747  0.37609880    -0.00550
C1349       C  0.27796406  0.70055422  0.33750002    -0.12280
C1350       C  0.23878445  0.68759421  0.33667504     0.01650
H1351       H  0.22180861  0.66039737  0.45268542     0.14630
H1352       H  0.29278525  0.70834177  0.30396212     0.14630
C1353       C  0.22230346  0.68767593  0.29086110     0.36280
C1354       C  0.29108467  0.66980852  0.45886697     0.36190
N1355       N  0.21219618  0.68988779  0.25285418    -0.44060
N1356       N  0.30177765  0.65782119  0.48945414    -0.44060
C1357       C  0.38224736  0.63526426  0.29063500    -0.00470
C1358       C  0.39675981  0.65342237  0.24726667    -0.12340
C1359       C  0.43655245  0.67598948  0.24325214     0.01770
C1360       C  0.46052594  0.67327066  0.27829507    -0.00550
C1361       C  0.44476008  0.64711932  0.31541432    -0.12280
C1362       C  0.40509957  0.62652679  0.32113839     0.01650
H1363       H  0.37885159  0.66034517  0.22459328     0.14630
H1364       H  0.46286342  0.64842648  0.34477007     0.14630
C1365       C  0.39157773  0.61010776  0.36746605     0.36280
C1366       C  0.45184782  0.71059463  0.21480948     0.36190
N1367       N  0.38239831  0.59967429  0.40596179    -0.44060
N1368       N  0.46825983  0.74085405  0.19824226    -0.44060
O1369       O  0.52493921  0.14737270  0.31440113    -0.88660
C1370       C  0.60010737  0.17254852  0.21172007     0.87370
Mg1371     Mg  0.52627203  0.18302672  0.37162633     1.58150
O1372       O  0.58348081  0.10696663  0.30291943    -0.88390
O1373       O  0.49940724  0.08783678  0.29456756    -0.75720
C1374       C  0.70175862  0.23903002  0.47506535     0.92420
O1375       O  0.59148134  0.22431250  0.27992490    -0.75530
O1376       O  0.68142483  0.25607897  0.47233529    -0.83040
Mg1377     Mg  0.53823943  0.17472473  0.24181623     1.57960
C1378       C  0.67770838  0.13817831  0.37713133     0.92340
O1379       O  0.97722829  0.12339996  0.20712863    -0.81300
H1380       H  0.54164624  0.06351337  0.33936212    -0.06650
C1381       C  0.67126919  0.21817522  0.34712377     0.87280
O1382       O  0.53573802  0.15073623  0.43204263    -0.75810
O1383       O  0.56875828  0.14870500  0.22896147    -0.88580
O1384       O  0.65975721  0.12218260  0.34004161    -0.81390
C1385       C  0.62623255  0.09551674  0.19987738     0.92460
C1386       C  0.96430615  0.09041683  0.18828939     0.92310
Mg1387     Mg  0.63085183  0.15603422  0.42092230     1.57950
O1388       O  0.68755513  0.20565659  0.45787802    -0.81310
O1389       O  0.57955044  0.10549986  0.38211334    -0.75550
O1390       O  0.58998385  0.08559181  0.19375742    -0.81390
O1391       O  0.01737342  0.21486991  0.24154426    -0.83100
O1392       O  0.57943686  0.24881265  0.46675544    -0.81420
C1393       C  0.56774031  0.09098214  0.34108541     0.86750
O1394       O  0.59890355  0.18170202  0.43445686    -0.88560
O1395       O  0.64444878  0.18495648  0.34987064    -0.88670
O1396       O  0.67136544  0.24394723  0.37095750    -0.75720
Mg1397     Mg  0.54258327  0.09008527  0.24279218     1.57970
O1398       O  0.64686821  0.11758791  0.23249189    -0.83100
H1399       H  0.47823964  0.10482679  0.34635394    -0.06820
O1400       O  0.58701377  0.22444658  0.35913025    -0.88370
H1401       H  0.63056471  0.26587894  0.32221897    -0.06650
H1402       H  0.56716250  0.14474324  0.48537983    -0.06820
C1403       C  0.60357442  0.23919132  0.32079429     0.86720
C1404       C  0.49998115  0.11341495  0.31956538     0.87310
C1405       C  0.56749103  0.15951611  0.45289971     0.87360
H1406       H  0.69498597  0.22590863  0.32382841    -0.06800
O1407       O  0.63158069  0.18318623  0.23372656    -0.75830
Mg1408     Mg  0.62636152  0.24148435  0.41947447     1.58000
H1409       H  0.60053583  0.18824971  0.18018875    -0.06820
C1410       C  0.00046250  0.20319276  0.27974359     0.92340
O1411       O  0.52260171  0.21864741  0.42901248    -0.83060
C1412       C  0.54371681  0.24079447  0.46128469     0.92400
O1413       O  0.48677626  0.07549040  0.18835348    -0.83040
Mg1414     Mg  0.64362493  0.15148732  0.29062888     1.58180
O1415       O  0.01974718  0.21634087  0.31694159    -0.81380
O1416       O  0.66101213  0.12442352  0.41535946    -0.83070
C1417       C  0.64309141  0.07345861  0.17874324     0.00250
C1418       C  0.68149941  0.09201779  0.15943527     0.00250
C1419       C  0.92081771  0.06737687  0.17070301     0.00250
C1420       C  0.89893434  0.08536492  0.15413123     0.00250
O1421       O  0.54167768  0.35970906  0.34468700    -0.88660
C1422       C  0.65541149  0.40737696  0.37347160     0.87370
Mg1423     Mg  0.51537112  0.35458388  0.27516740     1.58150
O1424       O  0.60076390  0.44441414  0.41611407    -0.88390
O1425       O  0.53492433  0.36454606  0.42069560    -0.75720
C1426       C  0.62060828  0.53421125  0.20296112     0.92420
O1427       O  0.60879964  0.37338154  0.27580131    -0.75530
O1428       O  0.59926846  0.50339102  0.18089075    -0.83040
Mg1429     Mg  0.58482243  0.34157060  0.34720910     1.57960
C1430       C  0.64227326  0.04734780  0.38182525     0.92340
O1431       O  0.55471673  0.30639238  0.41469964    -0.81300
H1432       H  0.55210311  0.43425204  0.44802206    -0.06650
C1433       C  0.65005471  0.48402012  0.28571736     0.87280
O1434       O  0.49745862  0.39837053  0.29208015    -0.75810
O1435       O  0.62072509  0.39024127  0.38421832    -0.88580
O1436       O  0.63082750  0.02125819  0.41219203    -0.81390
C1437       C  0.69436924  0.46770313  0.47584733     0.92460
C1438       C  0.55407634  0.30506153  0.45962992     0.92310
Mg1439     Mg  0.58623471  0.49781687  0.31536500     1.57950
O1440       O  0.61728572  0.03382242  0.24783300    -0.81310
O1441       O  0.56072668  0.46308952  0.38557494    -0.75550
O1442       O  0.66816335  0.43184297  0.47366097    -0.81390
O1443       O  0.55163059  0.28839452  0.30809662    -0.83100
O1444       O  0.50090370  0.40494574  0.18573940    -0.81420
C1445       C  0.57082665  0.44690454  0.41793372     0.86750
O1446       O  0.55150159  0.45027228  0.27657755    -0.88560
O1447       O  0.62963498  0.48064772  0.32007578    -0.88670
O1448       O  0.63559135  0.47161403  0.24481515    -0.75720
Mg1449     Mg  0.59839442  0.39620328  0.44879465     1.57970
O1450       O  0.68558341  0.49248689  0.46190049    -0.83100
H1451       H  0.48972263  0.33953020  0.37432777    -0.06820
O1452       O  0.56902710  0.39277107  0.24730569    -0.88370
H1453       H  0.61495450  0.39955517  0.21187422    -0.06650
H1454       H  0.50363938  0.45106866  0.29419651    -0.06820
C1455       C  0.59775614  0.38861190  0.24345771     0.86720
C1456       C  0.52076415  0.35398105  0.37930984     0.87310
C1457       C  0.51697995  0.43420471  0.28719353     0.87360
H1458       H  0.68107638  0.49778459  0.29061413    -0.06800
O1459       O  0.67483179  0.44354258  0.37115561    -0.75830
Mg1460     Mg  0.57284434  0.44102526  0.21363060     1.58000
H1461       H  0.66919112  0.39123892  0.36474708    -0.06820
C1462       C  0.02410272  0.29091574  0.29030345     0.92340
O1463       O  0.98728315  0.34668909  0.20446656    -0.83060
C1464       C  0.97595438  0.36837719  0.18706108     0.92400
O1465       O  0.57890469  0.33477205  0.48178685    -0.83040
Mg1466     Mg  0.65505062  0.48555312  0.39065026     1.58180
O1467       O  0.03111779  0.31309690  0.25570851    -0.81380
O1468       O  0.61802527  0.05044778  0.35631604    -0.83070
O1469       O  0.82304858  0.35735095  0.35740058    -0.88660
C1470       C  0.83912648  0.43834731  0.44573480     0.87370
Mg1471     Mg  0.86212135  0.36024489  0.30107739     1.58150
O1472       O  0.76593284  0.40238470  0.35712865    -0.88390
O1473       O  0.76239870  0.32922364  0.37960466    -0.75720
C1474       C  0.90003436  0.02334175  0.18342735     0.92420
O1475       O  0.89876524  0.42763264  0.38307854    -0.75530
O1476       O  0.91798885  0.50387525  0.18234715    -0.83040
Mg1477     Mg  0.84963977  0.37587054  0.42648996     1.57960
C1478       C  0.76968411  0.98049057  0.27050302     0.92340
O1479       O  0.80090779  0.31774732  0.46326182    -0.81300
H1480       H  0.72650325  0.35536333  0.32381218    -0.06650
C1481       C  0.87286393  0.49283762  0.30682658     0.87280
O1482       O  0.82231455  0.35835977  0.24127460    -0.75810
O1483       O  0.81922317  0.40483940  0.43395888    -0.88580
O1484       O  0.75851295  0.95542407  0.30248904    -0.81390
C1485       C  0.75267192  0.45877062  0.45861404     0.92460
C1486       C  0.76705355  0.30297076  0.48097508     0.92310
Mg1487     Mg  0.81505708  0.44736038  0.23474782     1.57950
O1488       O  0.86550612  0.00688995  0.20007674    -0.81310
O1489       O  0.76580484  0.39459619  0.27824816    -0.75550
O1490       O  0.75052129  0.42619795  0.47143516    -0.81390
O1491       O  0.88172580  0.34621747  0.42708081    -0.83100
O1492       O  0.91865014  0.40316139  0.19170477    -0.81420
C1493       C  0.75187721  0.38325753  0.32024751     0.86750
O1494       O  0.84611560  0.41923713  0.22741764    -0.88560
O1495       O  0.83988147  0.46463306  0.30509037    -0.88670
O1496       O  0.90099897  0.49416428  0.28493341    -0.75720
Mg1497     Mg  0.75808045  0.37369780  0.42493745     1.57970
O1498       O  0.76316977  0.47070098  0.41654138    -0.83100
H1499       H  0.78375992  0.30447824  0.33777909    -0.06820
O1500       O  0.89706977  0.41992287  0.30423268    -0.88370
H1501       H  0.93816399  0.46613859  0.33715610    -0.06650
H1502       H  0.80686356  0.37960885  0.18464208    -0.06820
C1503       C  0.91225819  0.43867848  0.34099830     0.86720
C1504       C  0.78979054  0.32947499  0.35705246     0.87310
C1505       C  0.82531032  0.38573763  0.21556795     0.87360
H1506       H  0.87807984  0.51726888  0.32670840    -0.06800
O1507       O  0.83940887  0.46488546  0.42099682    -0.75830
Mg1508     Mg  0.90744801  0.45176677  0.23853130     1.58000
H1509       H  0.85820594  0.44527557  0.47615962    -0.06820
C1510       C  0.89604237  0.34236075  0.39027764     0.92340
O1511       O  0.89651768  0.35290954  0.24041481    -0.83060
C1512       C  0.91301937  0.36888415  0.20168814     0.92400
O1513       O  0.75010974  0.32326477  0.48152681    -0.83040
Mg1514     Mg  0.79937719  0.46122940  0.35946228     1.58180
O1515       O  0.90521926  0.36568328  0.35628572    -0.81380
O1516       O  0.78035247  0.97510003  0.23172385    -0.83070
C1517       C  0.93165945  0.34858628  0.17465809     0.00250
C1518       C  0.91111026  0.30818122  0.15968060     0.00250
O1519       O  0.78805920  0.49388539  0.01892786    -0.88660
C1520       C  0.77715235  0.08706994  0.03675967     0.87370
Mg1521     Mg  0.80242971  0.47468625  0.95138176     1.58150
O1522       O  0.71564498  0.99437716  0.08465796    -0.88390
O1523       O  0.78457332  0.48937498  0.09664889    -0.75720
C1524       C  0.63269926  0.42468738  0.86222615     0.92420
O1525       O  0.80283445  0.05525517  0.94607337    -0.75530
O1526       O  0.66001070  0.41951029  0.84642047    -0.83040
Mg1527     Mg  0.82700920  0.05250652  0.02286964     1.57960
C1528       C  0.62402804  0.46762968  0.03779747     0.92340
O1529       O  0.85349687  0.04758781  0.09620434    -0.81300
H1530       H  0.71234569  0.44792692  0.11607011    -0.06650
C1531       C  0.70653944  0.01554700  0.93794786     0.87280
O1532       O  0.75042045  0.41514525  0.96560920    -0.75810
O1533       O  0.78520131  0.06333709  0.05304853    -0.88580
O1534       O  0.64205888  0.96000504  0.06762116    -0.81390
C1535       C  0.69842062  0.06826322  0.13718262     0.92460
C1536       C  0.85772451  0.06371532  0.13558996     0.92310
Mg1537     Mg  0.66511406  0.44058783  0.97314575     1.57950
O1538       O  0.63808356  0.44317335  0.89994743    -0.81310
O1539       O  0.68966544  0.43810686  0.04933701    -0.75550
O1540       O  0.73342749  0.07328556  0.14403327    -0.81390
O1541       O  0.86904130  0.03717133  0.00058174    -0.83100
O1542       O  0.76051685  0.42137804  0.85057657    -0.81420
C1543       C  0.70635716  0.45997436  0.08470972     0.86750
O1544       O  0.70682033  0.42916623  0.94256280    -0.88560
O1545       O  0.70482170  0.99856741  0.97569146    -0.88670
O1546       O  0.70703288  0.00206063  0.89771279    -0.75720
Mg1547     Mg  0.76607276  0.03364789  0.11909903     1.57970
O1548       O  0.67625302  0.04372601  0.10729584    -0.83100
H1549       H  0.78984464  0.45190820  0.05521954    -0.06820
O1550       O  0.77643607  0.49891246  0.91050827    -0.88370
H1551       H  0.78033649  0.04567051  0.87916911    -0.06650
H1552       H  0.69253345  0.37705813  0.96654741    -0.06820
C1553       C  0.78610764  0.03345724  0.91053460     0.86720
C1554       C  0.78731829  0.47708668  0.05644277     0.87310
C1555       C  0.71527131  0.40567188  0.95847608     0.87360
H1556       H  0.70820466  0.04267956  0.93886614    -0.06800
O1557       O  0.74224435  0.07764247  0.02797461    -0.75830
Mg1558     Mg  0.72566105  0.45838692  0.87606105     1.58000
H1559       H  0.80000099  0.11584438  0.02941947    -0.06820
C1560       C  0.86775770  0.02558808  0.95980700     0.92340
O1561       O  0.81821513  0.45292077  0.88588263    -0.83060
C1562       C  0.79643287  0.42845522  0.85591871     0.92400
O1563       O  0.83072947  0.06951373  0.15049690    -0.83040
Mg1564     Mg  0.69026604  0.01849781  0.04281606     1.58180
O1565       O  0.84982130  0.53211154  0.92856942    -0.81380
O1566       O  0.62481956  0.45966408  0.99566050    -0.83070
O1567       O  0.68424155  0.20776931  0.99199516    -0.88660
C1568       C  0.72672497  0.31790875  0.96359243     0.87370
Mg1569     Mg  0.68000415  0.17949700  0.05962246     1.58150
O1570       O  0.77160346  0.27152050  0.92003990    -0.88390
O1571       O  0.69254338  0.20406411  0.91583032    -0.75720
C1572       C  0.86916268  0.28459534  0.13711059     0.92420
O1573       O  0.70071640  0.27044145  0.06057737    -0.75530
O1574       O  0.83825729  0.25907715  0.15899691    -0.83040
Mg1575     Mg  0.66376489  0.24820944  0.99003548     1.57960
C1576       C  0.88206447  0.31958484  0.95117050     0.92340
O1577       O  0.62389045  0.21498134  0.92119869    -0.81300
H1578       H  0.76637257  0.22629888  0.88636486    -0.06650
C1579       C  0.80456412  0.31133764  0.05654888     0.87280
O1580       O  0.72637965  0.16515960  0.03669746    -0.75810
O1581       O  0.71101848  0.28458095  0.95017706    -0.88580
O1582       O  0.85180403  0.30755831  0.92702334    -0.81390
C1583       C  0.79455078  0.36369331  0.85910814     0.92460
C1584       C  0.62234383  0.21112117  0.87593617     0.92310
Mg1585     Mg  0.82973558  0.25803880  0.02101495     1.57950
O1586       O  0.86715910  0.28571349  0.09180213    -0.81310
O1587       O  0.79604345  0.23585279  0.94858839    -0.75550
O1588       O  0.75778114  0.33709534  0.85664484    -0.81390
O1589       O  0.61186209  0.22009921  0.03558295    -0.83100
O1590       O  0.73510043  0.16127912  0.14432840    -0.81420
C1591       C  0.77758647  0.24416532  0.91703860     0.86750
O1592       O  0.78103814  0.21626602  0.05706528    -0.88560
O1593       O  0.80387516  0.29407349  0.02064561    -0.88670
O1594       O  0.79814831  0.29601043  0.09780434    -0.75720
Mg1595     Mg  0.72036817  0.26559584  0.88596499     1.57970
O1596       O  0.81789706  0.35814794  0.88482862    -0.83100
H1597       H  0.67025955  0.15862147  0.96106265    -0.06820
O1598       O  0.72065664  0.23090119  0.09011966    -0.88370
H1599       H  0.72957016  0.27787001  0.12304689    -0.06650
H1600       H  0.77946337  0.17062968  0.02917998    -0.06820
C1601       C  0.71725479  0.25998271  0.09254783     0.86720
C1602       C  0.68192826  0.18895386  0.95682678     0.87310
C1603       C  0.76320863  0.18354563  0.04101252     0.87360
H1604       H  0.81214770  0.34084549  0.05296137    -0.06800
O1605       O  0.76299826  0.33746591  0.97086120    -0.75830
Mg1606     Mg  0.77131813  0.23332577  0.12345369     1.58000
H1607       H  0.70879075  0.32977233  0.97202232    -0.06820
C1608       C  0.61103476  0.19492641  0.06266344     0.92340
O1609       O  0.67370967  0.14344552  0.12636594    -0.83060
C1610       C  0.69842000  0.13478959  0.14305852     0.92400
O1611       O  0.65301897  0.23458893  0.85204020    -0.83040
Mg1612     Mg  0.80965340  0.32352470  0.95210601     1.58180
O1613       O  0.64062609  0.20099217  0.08622852    -0.81380
O1614       O  0.88369482  0.29972100  0.98482878    -0.83070
O1615       O  0.00836368  0.30586070  0.98635722    -0.88660
C1616       C  0.57562518  0.26196742  0.96518264     0.87370
Mg1617     Mg  0.98754682  0.30667785  0.05705175     1.58150
O1618       O  0.48227874  0.22181338  0.92095949    -0.88390
O1619       O  0.99592885  0.30079394  0.91001864    -0.75720
C1620       C  0.91396827  0.12470793  0.12958894     0.92420
O1621       O  0.56366110  0.29436245  0.05736886    -0.75530
O1622       O  0.91826474  0.15440745  0.15043441    -0.83040
Mg1623     Mg  0.57076939  0.32761952  0.98539896     1.57960
C1624       C  0.92134499  0.11610690  0.95017555     0.92340
O1625       O  0.57469873  0.36247850  0.91412385    -0.81300
H1626       H  0.94261698  0.23097302  0.88792513    -0.06650
C1627       C  0.49268843  0.17929752  0.04915889     0.87280
O1628       O  0.92505644  0.26138163  0.03815489    -0.75810
O1629       O  0.55899761  0.27924345  0.95054036    -0.88580
O1630       O  0.43468073  0.14500105  0.92427485    -0.81390
C1631       C  0.55327859  0.19743644  0.86806979     0.92460
C1632       C  0.57414971  0.36300433  0.86873933     0.92310
Mg1633     Mg  0.91397746  0.16199607  0.01733363     1.57950
O1634       O  0.91304118  0.12503343  0.08433009    -0.81310
O1635       O  0.92205309  0.19869167  0.94786728    -0.75550
O1636       O  0.56386386  0.23346942  0.87116675    -0.81390
O1637       O  0.59001876  0.38125317  0.02462226    -0.83100
O1638       O  0.92144415  0.25255214  0.14283390    -0.81420
C1639       C  0.94905608  0.21778442  0.91770994     0.86750
O1640       O  0.92521682  0.20864268  0.05490696    -0.88560
O1641       O  0.47554854  0.18429674  0.01523883    -0.88670
O1642       O  0.49047720  0.18942238  0.09060300    -0.75720
Mg1643     Mg  0.52828389  0.26965384  0.88615809     1.57970
O1644       O  0.51902823  0.17313346  0.87905969    -0.83100
H1645       H  0.97561626  0.32495392  0.95509165    -0.06820
O1646       O  0.00286985  0.26770370  0.08228019    -0.88370
H1647       H  0.54433034  0.26372839  0.11872124    -0.06650
H1648       H  0.87724200  0.20896027  0.03359351    -0.06820
C1649       C  0.53696640  0.27480908  0.08751667     0.86720
C1650       C  0.99246670  0.31108513  0.95106870     0.87310
C1651       C  0.90768802  0.22537975  0.04246626     0.87360
H1652       H  0.50989668  0.16608204  0.04332553    -0.06800
O1653       O  0.55802899  0.22573006  0.96888449    -0.75830
Mg1654     Mg  0.95735853  0.21809635  0.11702568     1.58000
H1655       H  0.60566431  0.27814421  0.97600012    -0.06820
C1656       C  0.55953452  0.37450714  0.04454039     0.92340
O1657       O  0.96863727  0.31089914  0.12990467    -0.83060
C1658       C  0.93488226  0.28910776  0.14503962     0.92400
O1659       O  0.56805033  0.33241495  0.84770086    -0.83040
Mg1660     Mg  0.49576405  0.18126569  0.94724715     1.58180
O1661       O  0.04656563  0.34959477  0.07677186    -0.81380
O1662       O  0.89437978  0.10925864  0.97731030    -0.83070
O1663       O  0.65020758  0.02284589  0.69206598    -0.88660
C1664       C  0.67547635  0.10054114  0.79229529     0.87370
Mg1665     Mg  0.68114458  0.02095981  0.63109859     1.58150
O1666       O  0.60270905  0.08079836  0.70742632    -0.88390
O1667       O  0.59018377  0.00297066  0.71223979    -0.75720
C1668       C  0.73771584  0.19663574  0.53263394     0.92420
O1669       O  0.73054812  0.08415346  0.72313807    -0.75530
O1670       O  0.75157154  0.17365959  0.53457621    -0.83040
Mg1671     Mg  0.67834018  0.03441018  0.76147157     1.57960
C1672       C  0.60680718  0.16703397  0.63797401     0.92340
O1673       O  0.62721634  0.47937796  0.79615905    -0.81300
H1674       H  0.55688541  0.04157511  0.67117395    -0.06650
C1675       C  0.71329903  0.16232284  0.66644724     0.87280
O1676       O  0.64491781  0.03397485  0.58059953    -0.75810
O1677       O  0.65256321  0.06884458  0.77606210    -0.88580
O1678       O  0.59871041  0.14146545  0.66861230    -0.81390
C1679       C  0.58707820  0.12475073  0.81328484     0.92460
C1680       C  0.59393123  0.46633980  0.81469755     0.92310
Mg1681     Mg  0.65259563  0.13263848  0.59117927     1.57950
O1682       O  0.70542625  0.18672111  0.55277510    -0.81310
O1683       O  0.59870137  0.08114464  0.62842113    -0.75550
O1684       O  0.57918796  0.08941179  0.82084905    -0.81390
O1685       O  0.71040943  0.50165793  0.75543582    -0.83100
O1686       O  0.75030389  0.07428408  0.53510859    -0.81420
C1687       C  0.58507165  0.06694664  0.66946312     0.86750
O1688       O  0.67500853  0.09615035  0.57686190    -0.88560
O1689       O  0.67832249  0.14090777  0.66029074    -0.88670
O1690       O  0.73843370  0.16006263  0.64216781    -0.75720
Mg1691     Mg  0.59022756  0.04312175  0.76728916     1.57970
O1692       O  0.60685502  0.14166040  0.77781863    -0.83100
H1693       H  0.60578812  0.98208633  0.65861281    -0.06820
O1694       O  0.72528147  0.07934199  0.64415436    -0.88370
H1695       H  0.77229236  0.11934580  0.67748987    -0.06650
H1696       H  0.62740806  0.06361852  0.53865502    -0.06820
C1697       C  0.74381907  0.09459472  0.68116609     0.86720
C1698       C  0.61516863  0.00139253  0.68696689     0.87310
C1699       C  0.64859938  0.06475492  0.56402632     0.87360
H1700       H  0.72261700  0.18301416  0.69391375    -0.06800
O1701       O  0.67923564  0.13101153  0.77364013    -0.75830
Mg1702     Mg  0.73778745  0.11923936  0.58652216     1.58000
H1703       H  0.69432727  0.10245181  0.82141725    -0.06820
C1704       C  0.72300645  0.49640545  0.71747612     0.92340
O1705       O  0.71403600  0.01570094  0.56547210    -0.83060
C1706       C  0.73947237  0.03792288  0.53546775     0.92400
O1707       O  0.57798350  0.98761697  0.81587540    -0.83040
Mg1708     Mg  0.64170908  0.13894967  0.71771223     1.58180
O1709       O  0.71251711  0.50343160  0.67811542    -0.81380
O1710       O  0.62856392  0.17126677  0.60386566    -0.83070
C1711       C  0.58120861  0.18320290  0.85370759     0.00250
C1712       C  0.56544502  0.14460060  0.83417009     0.00250
C1713       C  0.59096372  0.40314460  0.84470222     0.00250
C1714       C  0.57108131  0.42350137  0.82897863     0.00250
O1715       O  0.98173942  0.12975685  0.67550137    -0.88660
C1716       C  0.89269169  0.06272516  0.76353471     0.87370
Mg1717     Mg  0.98576507  0.16558989  0.61475589     1.58150
O1718       O  0.92960393  0.02575134  0.68324714    -0.88390
O1719       O  0.00425118  0.09341902  0.70366506    -0.75720
C1720       C  0.80538885  0.04153773  0.51707172     0.92420
O1721       O  0.91348417  0.14423127  0.69968370    -0.75530
O1722       O  0.82669448  0.07883447  0.51742316    -0.83040
Mg1723     Mg  0.96094665  0.14014174  0.74105341     1.57960
C1724       C  0.84750264  0.44344611  0.60420759     0.92340
O1725       O  0.51479822  0.14488320  0.78502000    -0.81300
H1726       H  0.97487765  0.02968514  0.64875070    -0.06650
C1727       C  0.85162762  0.05201954  0.65067596     0.87280
O1728       O  0.97527914  0.12142071  0.56000463    -0.75810
O1729       O  0.92646155  0.07888513  0.74923446    -0.88580
O1730       O  0.87567359  0.45869833  0.63250442    -0.81390
C1731       C  0.87721824  0.95818368  0.78695857     0.92460
C1732       C  0.52496780  0.12473240  0.81050148     0.92310
Mg1733     Mg  0.87845080  0.02693917  0.56624152     1.57950
O1734       O  0.82010241  0.02169212  0.53318591    -0.81310
O1735       O  0.93358910  0.02880370  0.60414205    -0.75550
O1736       O  0.90001931  0.99265768  0.80155825    -0.81390
O1737       O  0.49185894  0.20440756  0.73515102    -0.83100
O1738       O  0.93382926  0.18394322  0.52105753    -0.81420
C1739       C  0.94714866  0.02825937  0.64592903     0.86750
O1740       O  0.91237738  0.08741878  0.55403853    -0.88560
O1741       O  0.86670709  0.03368711  0.63763051    -0.88670
O1742       O  0.85314627  0.07984627  0.62705024    -0.75720
Mg1743     Mg  0.95668617  0.04831505  0.75141711     1.57970
O1744       O  0.87879772  0.95391210  0.74313415    -0.83100
H1745       H  0.03094609  0.13469177  0.65402335    -0.06820
O1746       O  0.92608517  0.14915671  0.62287482    -0.88370
H1747       H  0.88549097  0.15799846  0.64956579    -0.06650
H1748       H  0.94735231  0.08183148  0.50971162    -0.06820
C1749       C  0.90863220  0.15207018  0.65701469     0.86720
C1750       C  0.00676946  0.12030116  0.67697838     0.87310
C1751       C  0.94484484  0.09695381  0.53909139     0.87360
H1752       H  0.83492783  0.04315372  0.68264089    -0.06800
O1753       O  0.86763196  0.03009070  0.74860003    -0.75830
Mg1754     Mg  0.88626310  0.12184021  0.56698987     1.58000
H1755       H  0.88429612  0.07607159  0.78968354    -0.06820
C1756       C  0.50339779  0.22666052  0.69938246     0.92340
O1757       O  0.99230281  0.20568293  0.55504891    -0.83060
C1758       C  0.97071055  0.21028128  0.52532647     0.92400
O1759       O  0.00291603  0.08799550  0.81194875    -0.83040
Mg1760     Mg  0.87147132  0.99431948  0.68901739     1.58180
O1761       O  0.50111435  0.21417838  0.65861540    -0.81380
O1762       O  0.84211619  0.46358375  0.57375139    -0.83070
O1763       O  0.97951998  0.34571292  0.68374592    -0.88660
C1764       C  0.93423626  0.41381812  0.70620675     0.87370
Mg1765     Mg  0.99105820  0.32778810  0.61527625     1.58150
O1766       O  0.88420042  0.32111269  0.74811672    -0.88390
O1767       O  0.96272044  0.32809103  0.75815418    -0.75720
C1768       C  0.80453105  0.25511094  0.53073948     0.92420
O1769       O  0.97203728  0.40088596  0.61247214    -0.75530
O1770       O  0.83560493  0.26288264  0.50756389    -0.83040
Mg1771     Mg  0.99778979  0.40507056  0.68827697     1.57960
C1772       C  0.77506748  0.25872618  0.70189805     0.92340
O1773       O  0.52956492  0.41050533  0.76056229    -0.81300
H1774       H  0.88555993  0.27915788  0.78511471    -0.06650
C1775       C  0.85854930  0.33724939  0.60800867     0.87280
O1776       O  0.94102075  0.26705985  0.62938707    -0.75810
O1777       O  0.94745589  0.39350992  0.72033310    -0.88580
O1778       O  0.80060813  0.28144014  0.73026649    -0.81390
C1779       C  0.86484307  0.39134628  0.80241668     0.92460
C1780       C  0.03019792  0.40646470  0.80539608     0.92310
Mg1781     Mg  0.83943879  0.26021226  0.64305502     1.57950
O1782       O  0.80657532  0.25536729  0.57530669    -0.81310
O1783       O  0.86510249  0.26413980  0.71820049    -0.75550
O1784       O  0.89995946  0.39703194  0.80845339    -0.81390
O1785       O  0.55127738  0.42069565  0.66007808    -0.83100
O1786       O  0.94203035  0.27090005  0.51895219    -0.81420
C1787       C  0.87805272  0.28788230  0.75202015     0.86750
O1788       O  0.89069248  0.27198183  0.61006867    -0.88560
O1789       O  0.85931067  0.31993003  0.64442404    -0.88670
O1790       O  0.87270248  0.33488030  0.56905738    -0.75720
Mg1791     Mg  0.93426117  0.36145021  0.78537483     1.57970
O1792       O  0.83980760  0.36329773  0.77831114    -0.83100
H1793       H  0.98821279  0.30681131  0.71770727    -0.06820
O1794       O  0.95507378  0.34564434  0.57843194    -0.88370
H1795       H  0.95156661  0.38788543  0.54517999    -0.06650
H1796       H  0.88610626  0.22228137  0.63005249    -0.06820
C1797       C  0.95969458  0.37840704  0.57721056     0.87260
C1798       C  0.97741282  0.32622829  0.71938655     0.87310
C1799       C  0.90488468  0.25231402  0.62289998     0.87360
H1800       H  0.84559731  0.35497615  0.60932331    -0.06800
O1801       O  0.89862165  0.39966660  0.69618720    -0.75830
Mg1802     Mg  0.90288294  0.30224479  0.54378647     1.58000
H1803       H  0.95370775  0.44387756  0.70004050    -0.06820
C1804       C  0.56584733  0.41100904  0.62871346     0.92340
O1805       O  0.00237449  0.30473125  0.54675980    -0.83060
C1806       C  0.97764121  0.27747539  0.52152556     0.92400
O1807       O  0.99790348  0.39388085  0.82711892    -0.83040
Mg1808     Mg  0.84952860  0.33945854  0.71109182     1.58180
O1809       O  0.54519843  0.38608607  0.59857781    -0.81380
O1810       O  0.78382109  0.24422672  0.66952558    -0.83070
C1811       C  0.81326853  0.40428877  0.83576550     0.00250
C1812       C  0.85240189  0.42007584  0.81688656     0.00250
C1813       C  0.52921392  0.26549178  0.48238961     0.00250
C1814       C  0.99093026  0.25054774  0.50146077     0.00250
C1815       C  0.74452860  0.25943739  0.49384072     0.00250
C1816       C  0.76228356  0.23784560  0.51158610     0.00250
C1817       C  0.73742803  0.48187064  0.48757619     0.00250
C1818       C  0.76034277  0.02028085  0.50693351     0.00250
C1819       C  0.52115061  0.48271669  0.00276305     0.01970
C1820       C  0.53834342  0.01736990  0.02707114     0.01970
C1821       C  0.52961730  0.04437681  0.01157434     0.01970
C1822       C  0.50106400  0.03630178  0.97804062     0.01970
C1823       C  0.98143682  0.00057043  0.95758618     0.01970
C1824       C  0.99314694  0.47464957  0.96745828     0.01970
C1825       C  0.81961817  0.13086551  0.30835991     0.01970
C1826       C  0.85924777  0.14908577  0.31357869     0.01970
C1827       C  0.87795315  0.18063442  0.34252222     0.01970
C1828       C  0.85653779  0.19249855  0.36775272     0.01970
C1829       C  0.81677384  0.17314350  0.36372783     0.01970
C1830       C  0.79854502  0.14124807  0.33612394     0.01970
C1831       C  0.70406789  0.37576533  0.66109383     0.01970
C1832       C  0.66784297  0.37242075  0.66184133     0.01970
C1833       C  0.63489457  0.33634142  0.66452779     0.01970
C1834       C  0.63908998  0.30441559  0.66058990     0.01970
C1835       C  0.67600478  0.30870845  0.65837887     0.01970
C1836       C  0.70752176  0.34422597  0.65268490     0.01970
C1837       C  0.66459442  0.40669221  0.65695915    -0.00470
C1838       C  0.64882928  0.41458217  0.69478715    -0.12340
C1839       C  0.61534038  0.41550642  0.68588354     0.01770
C1840       C  0.60579044  0.42101716  0.63856211    -0.00550
C1841       C  0.63163647  0.42748603  0.60214581    -0.12280
C1842       C  0.66082532  0.41870612  0.61126851     0.01650
H1843       H  0.65371810  0.40629029  0.72995649     0.14630
H1844       H  0.62497780  0.43220873  0.56611696     0.14630
C1845       C  0.68014389  0.41280518  0.57313593     0.36280
C1846       C  0.58610437  0.39390502  0.72043916     0.36190
N1847       N  0.69630999  0.40644606  0.54473787    -0.44060
N1848       N  0.56375912  0.37206187  0.74658057    -0.44060
C1849       C  0.68534406  0.28000466  0.67576329    -0.00470
C1850       C  0.70002705  0.28418899  0.72225802    -0.12340
C1851       C  0.72566208  0.27149269  0.73422304     0.01770
C1852       C  0.73691452  0.25529057  0.69941745    -0.00550
C1853       C  0.71733084  0.24574957  0.65559603    -0.12280
C1854       C  0.69213738  0.25867940  0.64353393     0.01650
H1855       H  0.69421766  0.30016795  0.74748834     0.14630
H1856       H  0.72540040  0.23283482  0.62836637     0.14630
C1857       C  0.67703903  0.25406595  0.59637969     0.36280
C1858       C  0.74323958  0.27759801  0.78036995     0.36190
N1859       N  0.66274668  0.24985259  0.55955218    -0.44060
N1860       N  0.76106550  0.28102727  0.81443154    -0.44060
C1861       C  0.74364552  0.34842760  0.63550553    -0.00470
C1862       C  0.77278168  0.35768128  0.66867383    -0.12340
C1863       C  0.80634332  0.39149328  0.66041383     0.01770
C1864       C  0.81686934  0.40447331  0.61313083    -0.00550
C1865       C  0.79071318  0.38472629  0.57621447    -0.12280
C1866       C  0.75264527  0.35815476  0.58780679     0.01650
H1867       H  0.76448756  0.34918946  0.70519214     0.14630
H1868       H  0.79768847  0.39482952  0.53994316     0.14630
C1869       C  0.72203383  0.34686589  0.55303118     0.36280
C1870       C  0.81257682  0.41776929  0.69702067     0.36190
N1871       N  0.69685486  0.33719207  0.52591471    -0.44060
N1872       N  0.81078619  0.43644395  0.72597182    -0.44060
C1873       C  0.59790173  0.33012194  0.68278226    -0.00470
C1874       C  0.59011494  0.31718870  0.72963333    -0.12340
C1875       C  0.55521997  0.28425555  0.73953641     0.01770
C1876       C  0.52627115  0.26848702  0.70410595    -0.00550
C1877       C  0.53074051  0.29000077  0.66267187    -0.12280
C1878       C  0.56716269  0.32002208  0.65129585     0.01650
H1879       H  0.61440451  0.32544770  0.75387089     0.14630
H1880       H  0.50895549  0.27840199  0.63501449     0.14630
C1881       C  0.57488327  0.33523882  0.60445565     0.36280
C1882       C  0.55855401  0.25853310  0.77118799     0.36190
N1883       N  0.58310553  0.34959321  0.56769160    -0.44060
N1884       N  0.56119273  0.23306240  0.78479103    -0.44060
C1885       C  0.60568926  0.26605636  0.65930955    -0.00470
C1886       C  0.60332294  0.24451674  0.69880334    -0.12340
C1887       C  0.60321022  0.21104174  0.69278529     0.01770
C1888       C  0.59554190  0.19503122  0.64736072    -0.00550
C1889       C  0.58537502  0.21171719  0.60995104    -0.12280
C1890       C  0.59248174  0.24876958  0.61526398     0.01650
H1891       H  0.61654807  0.26000871  0.73103245     0.14630
H1892       H  0.57957565  0.19940634  0.57506091     0.14630
C1893       C  0.59856955  0.27233802  0.57393864     0.36280
C1894       C  0.62752264  0.20574012  0.72664604     0.36190
N1895       N  0.60648972  0.29351302  0.54246954    -0.44060
N1896       N  0.65088746  0.20717429  0.75273155    -0.44060
C1897       C  0.74543647  0.47673362  0.71620473    -0.00470
C1898       C  0.73648362  0.44767243  0.74954086    -0.12340
C1899       C  0.72970618  0.41256500  0.73377829     0.01770
C1900       C  0.73453616  0.40857902  0.68507355    -0.00550
C1901       C  0.75517112  0.44064050  0.65666951    -0.12280
C1902       C  0.76043934  0.47492426  0.67207685     0.01650
H1903       H  0.72649257  0.44934871  0.78421888     0.14630
H1904       H  0.75984028  0.43751285  0.61978250     0.14630
C1905       C  0.77051328  0.50441312  0.63750055     0.36280
C1906       C  0.70972718  0.37989204  0.76495487     0.36190
N1907       N  0.77808295  0.53025629  0.61315962    -0.44060
N1908       N  0.69338449  0.35439043  0.79080512    -0.44060
C1909       C  0.94523166  0.09947309  0.95913738    -0.00470
C1910       C  0.94857490  0.08777642  0.00481073    -0.12340
C1911       C  0.96593867  0.06613064  0.01158747     0.01770
C1912       C  0.98577325  0.06204770  0.97363844    -0.00550
C1913       C  0.48759705  0.07909892  0.92976478    -0.12280
C1914       C  0.46415254  0.09459389  0.92141179     0.01650
H1915       H  0.93380355  0.09151280  0.03383746     0.14630
H1916       H  0.50337224  0.07603131  0.90126687     0.14630
C1917       C  0.45518263  0.10128287  0.87406090     0.36280
C1918       C  0.95867984  0.04462258  0.05530300     0.36190
N1919       N  0.44641694  0.10891276  0.83814106    -0.44060
N1920       N  0.95254828  0.02678189  0.08985484    -0.44060
C1921       C  0.53555351  0.38841650  0.02273100    -0.00470
C1922       C  0.54818419  0.40973267  0.98076672    -0.12340
C1923       C  0.54578503  0.44235035  0.97567828     0.01770
C1924       C  0.53010502  0.45276300  0.01221541    -0.00550
C1925       C  0.01169184  0.42750898  0.04982191    -0.12280
C1926       C  0.01050069  0.39314951  0.05142285     0.01650
H1927       H  0.56562771  0.40531701  0.95630828     0.14630
H1928       H  0.99367652  0.43207851  0.07365224     0.14630
C1929       C  0.97291111  0.36142689  0.05834663     0.36280
C1930       C  0.56295961  0.46755987  0.93593879     0.36190
N1931       N  0.94188993  0.33581004  0.05962487    -0.44060
N1932       N  0.57649119  0.49048266  0.90654765    -0.44060
C1933       C  0.55243788  0.08288483  0.02675632    -0.00470
C1934       C  0.54556258  0.09273772  0.07101969    -0.12340
C1935       C  0.56052737  0.13066848  0.08047622     0.01770
C1936       C  0.58595412  0.15742084  0.04853147    -0.00550
C1937       C  0.59311192  0.14752618  0.00492793    -0.12280
C1938       C  0.57651679  0.11017197  0.99355562     0.01650
H1939       H  0.52685687  0.07122457  0.09623863     0.14630
H1940       H  0.61243157  0.16887583  0.98061942     0.14630
C1941       C  0.58682173  0.10007678  0.94979392     0.36280
C1942       C  0.54485908  0.14268356  0.11683389     0.36190
N1943       N  0.59600191  0.09140376  0.91599744    -0.44060
N1944       N  0.53260706  0.15550769  0.14254801    -0.44060
C1945       C  0.96525391  0.43466270  0.95842945    -0.00470
C1946       C  0.94262091  0.41551746  0.99689586    -0.12340
C1947       C  0.91370189  0.37912423  0.99402545     0.01770
C1948       C  0.90866671  0.35953515  0.95193252    -0.00550
C1949       C  0.92927279  0.37906241  0.91119883    -0.12280
C1950       C  0.95726953  0.41763348  0.91419286     0.01650
H1951       H  0.94759840  0.42976466  0.03029264     0.14630
H1952       H  0.92379256  0.36431268  0.87805883     0.14630
C1953       C  0.97696030  0.43945232  0.87282610     0.36280
C1954       C  0.89269188  0.36441372  0.03728726     0.36190
N1955       N  0.99303990  0.45714385  0.83968811    -0.44060
N1956       N  0.88181715  0.35861306  0.07578617    -0.44060
C1957       C  0.94088004  0.98563570  0.94608811    -0.00470
C1958       C  0.91671524  0.47302727  0.98520377    -0.12340
C1959       C  0.88680559  0.47984844  0.98752599     0.01770
C1960       C  0.88295881  0.00126714  0.95040025    -0.00550
C1961       C  0.90086701  0.00533548  0.90668202    -0.12280
C1962       C  0.93020013  0.99651030  0.90434120     0.01650
H1963       H  0.92649378  0.46703639  0.01838851     0.14630
H1964       H  0.89642759  0.02070367  0.87767830     0.14630
C1965       C  0.95533689  0.00725579  0.86424147     0.36280
C1966       C  0.86897697  0.47357505  0.03330577     0.36190
N1967       N  0.97579133  0.01513745  0.83242563    -0.44060
N1968       N  0.85782658  0.46901967  0.07164611    -0.44060
C1969       C  0.61077709  0.49290242  0.05085096    -0.00470
C1970       C  0.58681835  0.98339710  0.09043104    -0.12340
C1971       C  0.56596681  0.00235686  0.09590859     0.01770
C1972       C  0.57043999  0.52886346  0.06124093    -0.00550
C1973       C  0.60605976  0.54878507  0.03925091    -0.12280
C1974       C  0.62183109  0.52725650  0.02576221     0.01650
H1975       H  0.58017348  0.95841731  0.11199292     0.14630
H1976       H  0.61346845  0.57428754  0.01897273     0.14630
C1977       C  0.64094883  0.53757083  0.98089611     0.36280
C1978       C  0.53450796  0.98931500  0.12885781     0.36190
N1979       N  0.65257726  0.54754357  0.94309247    -0.44060
N1980       N  0.50933003  0.97955519  0.15511001    -0.44060
C1981       C  0.80099455  0.09221184  0.29510682    -0.00470
C1982       C  0.79624175  0.06848694  0.33314463    -0.12340
C1983       C  0.79148775  0.03405542  0.32508389     0.01770
C1984       C  0.77831050  0.01821634  0.28013857    -0.00550
C1985       C  0.77805238  0.04105528  0.24195281    -0.12280
C1986       C  0.79269793  0.07955506  0.24882223     0.01650
H1987       H  0.80502097  0.08030951  0.36847472     0.14630
H1988       H  0.76954496  0.02956071  0.20681032     0.14630
C1989       C  0.80147471  0.10568522  0.20936980     0.36280
C1990       C  0.81540690  0.02692290  0.35695482     0.36190
N1991       N  0.80942876  0.12715391  0.17807173    -0.44060
N1992       N  0.83629933  0.02599360  0.38525133    -0.44060
C1993       C  0.89195589  0.30613798  0.38351835    -0.00470
C1994       C  0.89942830  0.28778252  0.42192942    -0.12340
C1995       C  0.88751068  0.24933484  0.41859870     0.01770
C1996       C  0.87353703  0.23238521  0.37536986    -0.00550
C1997       C  0.86898492  0.25148200  0.33708325    -0.12280
C1998       C  0.87294432  0.28590776  0.34263172     0.01650
H1999       H  0.91103611  0.30235201  0.45496734     0.14630
H2000       H  0.85610807  0.23646812  0.30448778     0.14630
C2001       C  0.84875192  0.29272580  0.31025607     0.36280
C2002       C  0.88502001  0.22616280  0.45903938     0.36190
N2003       N  0.82666689  0.29193658  0.28242487    -0.44060
N2004       N  0.88163618  0.20611505  0.49060771    -0.44060
C2005       C  0.75815344  0.11410571  0.34511268    -0.00470
C2006       C  0.74904119  0.09796792  0.39018874    -0.12340
C2007       C  0.71105002  0.07675614  0.40262088     0.01770
C2008       C  0.68225442  0.06593886  0.36784273    -0.00550
C2009       C  0.69218723  0.07730941  0.32069774    -0.12280
C2010       C  0.73005701  0.10300947  0.30959162     0.01650
H2011       H  0.77154071  0.10536963  0.41676033     0.14630
H2012       H  0.67035059  0.07036095  0.29406994     0.14630
C2013       C  0.73945946  0.12084027  0.26370192     0.36280
C2014       C  0.70251133  0.07642744  0.45118104     0.36190
N2015       N  0.74887533  0.13703263  0.22801441    -0.44060
N2016       N  0.69527004  0.07898886  0.48943834    -0.44060
C2017       C  0.91755151  0.20925848  0.33179559    -0.00470
C2018       C  0.92188770  0.23291981  0.29314083    -0.12340
C2019       C  0.95436578  0.26811139  0.28991189     0.01770
C2020       C  0.98727718  0.27426992  0.31519937    -0.00550
C2021       C  0.98263961  0.25176502  0.35555906    -0.12280
C2022       C  0.94725454  0.21982376  0.36499979     0.01650
H2023       H  0.89770559  0.22610652  0.26934244     0.14630
H2024       H  0.00726304  0.25550948  0.37535563     0.14630
C2025       C  0.94379984  0.19473815  0.40341866     0.36280
C2026       C  0.94667808  0.29841110  0.28111636     0.36190
N2027       N  0.94156185  0.17315965  0.43226728    -0.44060
N2028       N  0.93846446  0.32187277  0.27777194    -0.44060
C2029       C  0.71756626  0.16973869  0.37794134    -0.00470
C2030       C  0.73772367  0.17328032  0.42071794    -0.12340
C2031       C  0.77601132  0.18215825  0.41980602     0.01770
C2032       C  0.79394400  0.19081963  0.37609873    -0.00550
C2033       C  0.77796593  0.20055677  0.33750054    -0.12280
C2034       C  0.73878610  0.18759585  0.33667547     0.01650
H2035       H  0.72181023  0.16039690  0.45268516     0.14630
H2036       H  0.79278720  0.20834503  0.30396270     0.14630
C2037       C  0.72230514  0.18767757  0.29086151     0.36280
C2038       C  0.79108680  0.16980971  0.45886657     0.36190
N2039       N  0.71219794  0.18988944  0.25285455    -0.44060
N2040       N  0.80177964  0.15782218  0.48945366    -0.44060
C2041       C  0.88224752  0.13526486  0.29063240    -0.00470
C2042       C  0.89676039  0.15342350  0.24726440    -0.12340
C2043       C  0.93655314  0.17599045  0.24325030     0.01770
C2044       C  0.96052629  0.17327092  0.27829306    -0.00550
C2045       C  0.94476008  0.14711909  0.31541174    -0.12280
C2046       C  0.90509950  0.12652684  0.32113557     0.01650
H2047       H  0.87885241  0.16034670  0.22459109     0.14630
H2048       H  0.96286330  0.14842569  0.34476738     0.14630
C2049       C  0.89157753  0.11010753  0.36746306     0.36280
C2050       C  0.95184911  0.21059595  0.21480817     0.36190
N2051       N  0.88239822  0.09967389  0.40595877    -0.44060
N2052       N  0.96826153  0.24085554  0.19824150    -0.44060
O2053       O  0.52493807  0.64737226  0.31440217    -0.88660
C2054       C  0.60010544  0.67254813  0.21172067     0.87370
Mg2055     Mg  0.52627165  0.68302662  0.37162750     1.58150
O2056       O  0.58347884  0.60696639  0.30292024    -0.88390
O2057       O  0.49940520  0.58783635  0.29456825    -0.75720
C2058       C  0.70175862  0.73903027  0.47506553     0.92420
O2059       O  0.59148004  0.72431178  0.27992546    -0.75530
O2060       O  0.68142491  0.75607932  0.47233564    -0.83040
Mg2061     Mg  0.53823757  0.67472422  0.24181710     1.57960
C2062       C  0.67770671  0.63817763  0.37713134     0.92340
O2063       O  0.97722582  0.62339943  0.20712952    -0.81300
H2064       H  0.54164423  0.56351359  0.33936348    -0.06650
C2065       C  0.67126839  0.71817475  0.34712436     0.87280
O2066       O  0.53573773  0.65073626  0.43204386    -0.75810
O2067       O  0.56875617  0.64870443  0.22896154    -0.88580
O2068       O  0.65975550  0.62218186  0.34004167    -0.81390
C2069       C  0.62623033  0.59551654  0.19987790     0.92460
C2070       C  0.96430366  0.59041632  0.18829007     0.92310
Mg2071     Mg  0.63085101  0.65603424  0.42092306     1.57950
O2072       O  0.68755487  0.70565673  0.45787837    -0.81310
O2073       O  0.57954910  0.60550005  0.38211425    -0.75550
O2074       O  0.58998158  0.58559139  0.19375789    -0.81390
O2075       O  0.01737263  0.71487033  0.24154569    -0.83100
O2076       O  0.57943704  0.74881310  0.46675595    -0.81420
C2077       C  0.56773851  0.59098221  0.34108643     0.86750
O2078       O  0.59890326  0.68170235  0.43445815    -0.88560
O2079       O  0.64444757  0.68495623  0.34987138    -0.88670
O2080       O  0.67136518  0.74394706  0.37095800    -0.75720
Mg2081     Mg  0.54258110  0.59008480  0.24279278     1.57970
O2082       O  0.64686583  0.61758766  0.23249245    -0.83100
H2083       H  0.47823848  0.60482663  0.34635533    -0.06820
O2084       O  0.58701336  0.72444630  0.35913092    -0.88370
H2085       H  0.63056425  0.76587813  0.32221897    -0.06650
H2086       H  0.56716231  0.64474384  0.48538139    -0.06820
C2087       C  0.60357374  0.73919070  0.32079470     0.86720
C2088       C  0.49997974  0.61341462  0.31956647     0.87310
C2089       C  0.56749076  0.65951649  0.45290110     0.87360
H2090       H  0.69498507  0.72590764  0.32382899    -0.06800
O2091       O  0.63157858  0.68318592  0.23372765    -0.75830
Mg2092     Mg  0.62636141  0.74148454  0.41947497     1.58000
H2093       H  0.60053421  0.68824953  0.18018945    -0.06820
C2094       C  0.00046208  0.70319297  0.27974521     0.92340
O2095       O  0.52260173  0.71864753  0.42901343    -0.83060
C2096       C  0.54371695  0.74079479  0.46128538     0.92400
O2097       O  0.48677387  0.57548997  0.18835404    -0.83040
Mg2098     Mg  0.64362301  0.65148692  0.29062952     1.58180
O2099       O  0.01974711  0.71634098  0.31694298    -0.81380
O2100       O  0.66101058  0.62442299  0.41535956    -0.83070
C2101       C  0.64308954  0.57345874  0.17874392     0.00250
C2102       C  0.68149772  0.59201816  0.15943650     0.00250
C2103       C  0.92081504  0.56737612  0.17070365     0.00250
C2104       C  0.89893153  0.58536388  0.15413116     0.00250
O2105       O  0.54167778  0.85970913  0.34468692    -0.88660
C2106       C  0.65541175  0.90737624  0.37347068     0.87370
Mg2107     Mg  0.51537084  0.85458366  0.27516756     1.58150
O2108       O  0.60076490  0.94441430  0.41611307    -0.88390
O2109       O  0.53492493  0.86454644  0.42069554    -0.75720
C2110       C  0.62060984  0.03421100  0.20296022     0.92420
O2111       O  0.60879912  0.87338037  0.27580076    -0.75530
O2112       O  0.59927042  0.00339073  0.18088975    -0.83040
Mg2113     Mg  0.58482208  0.84157011  0.34720890     1.57960
C2114       C  0.64227208  0.54734772  0.38182753     0.92340
O2115       O  0.55471645  0.80639236  0.41469970    -0.81300
H2116       H  0.55210432  0.93425259  0.44802124    -0.06650
C2117       C  0.65005535  0.98401928  0.28571601     0.87280
O2118       O  0.49745906  0.89837089  0.29207974    -0.75810
O2119       O  0.62072539  0.89024090  0.38421757    -0.88580
O2120       O  0.63082621  0.52125818  0.41219441    -0.81390
C2121       C  0.69437025  0.96770311  0.47584603     0.92460
C2122       C  0.55407655  0.80506176  0.45962998     0.92310
Mg2123     Mg  0.58623567  0.99781674  0.31536373     1.57950
O2124       O  0.61728471  0.53382276  0.24783402    -0.81310
O2125       O  0.56072773  0.96308973  0.38557388    -0.75550
O2126       O  0.66816420  0.93184300  0.47365987    -0.81390
O2127       O  0.55162952  0.78839391  0.30809715    -0.83100
O2128       O  0.50090399  0.90494534  0.18573840    -0.81420
C2129       C  0.57082775  0.94690486  0.41793277     0.86750
O2130       O  0.55150236  0.95027210  0.27657653    -0.88560
O2131       O  0.62963578  0.98064726  0.32007441    -0.88670
O2132       O  0.63559183  0.97161290  0.24481396    -0.75720
Mg2133     Mg  0.59839521  0.89620346  0.44879397     1.57970
O2134       O  0.68558469  0.99248696  0.46189880    -0.83100
H2135       H  0.48972294  0.83953069  0.37432808    -0.06820
O2136       O  0.56902684  0.89277018  0.24730502    -0.88370
H2137       H  0.61495382  0.89955347  0.21187333    -0.06650
H2138       H  0.50364053  0.95106934  0.29419516    -0.06820
C2139       C  0.59775563  0.88861061  0.24345700     0.86720
C2140       C  0.52076449  0.85398138  0.37930990     0.87310
C2141       C  0.51698075  0.93420500  0.28719254     0.87360
H2142       H  0.68107702  0.99778359  0.29061268    -0.06800
O2143       O  0.67483232  0.94354184  0.37115441    -0.75830
Mg2144     Mg  0.57284479  0.94102457  0.21362960     1.58000
H2145       H  0.66919110  0.89123792  0.36474629    -0.06820
C2146       C  0.02410164  0.79091518  0.29030411     0.92340
O2147       O  0.98728272  0.84668870  0.20446725    -0.83060
C2148       C  0.97595438  0.86837684  0.18706085     0.92400
O2149       O  0.57890541  0.83477229  0.48178648    -0.83040
Mg2150     Mg  0.65505163  0.98555286  0.39064864     1.58180
O2151       O  0.03111660  0.81309611  0.25570897    -0.81380
O2152       O  0.61802417  0.55044765  0.35631803    -0.83070
O2153       O  0.82304941  0.85735108  0.35739974    -0.88660
C2154       C  0.83912726  0.93834777  0.44573313     0.87370
Mg2155     Mg  0.86212189  0.86024494  0.30107660     1.58150
O2156       O  0.76593410  0.90238534  0.35712680    -0.88390
O2157       O  0.76239935  0.82922392  0.37960288    -0.75720
C2158       C  0.90003176  0.52334095  0.18342803     0.92420
O2159       O  0.89876619  0.92763266  0.38307789    -0.75530
O2160       O  0.91799113  0.00387577  0.18234632    -0.83040
Mg2161     Mg  0.84964049  0.87587072  0.42648915     1.57960
C2162       C  0.76968425  0.48048912  0.27050454     0.92340
O2163       O  0.80090828  0.81774738  0.46326123    -0.81300
H2164       H  0.72650406  0.85536465  0.32380955    -0.06650
C2165       C  0.87286549  0.99283826  0.30682627     0.87280
O2166       O  0.82231520  0.85836040  0.24127397    -0.75810
O2167       O  0.81922398  0.90483976  0.43395743    -0.88580
O2168       O  0.75851252  0.45542304  0.30249105    -0.81390
C2169       C  0.75267268  0.95877041  0.45861267     0.92460
C2170       C  0.76705393  0.80297094  0.48097421     0.92310
Mg2171     Mg  0.81505931  0.94736220  0.23474684     1.57950
O2172       O  0.86550336  0.50688882  0.20007722    -0.81310
O2173       O  0.76580604  0.89459791  0.27824615    -0.75550
O2174       O  0.75052238  0.92619792  0.47143380    -0.81390
O2175       O  0.88172667  0.84621785  0.42708028    -0.83100
O2176       O  0.91865097  0.90316156  0.19170427    -0.81420
C2177       C  0.75187829  0.88325871  0.32024535     0.86750
O2178       O  0.84611677  0.91923782  0.22741657    -0.88560
O2179       O  0.83988297  0.96463388  0.30508941    -0.88670
O2180       O  0.90100060  0.99416490  0.28493326    -0.75720
Mg2181     Mg  0.75808129  0.87369808  0.42493563     1.57970
O2182       O  0.76316997  0.97070056  0.41653981    -0.83100
H2183       H  0.78376083  0.80447849  0.33777779    -0.06820
O2184       O  0.89707058  0.91992291  0.30423204    -0.88370
H2185       H  0.93816515  0.96613839  0.33715547    -0.06650
H2186       H  0.80686417  0.87960951  0.18464153    -0.06820
C2187       C  0.91225918  0.93867841  0.34099766     0.86720
C2188       C  0.78979134  0.82947520  0.35705121     0.87310
C2189       C  0.82531110  0.88573828  0.21556722     0.87360
H2190       H  0.87808128  0.01726932  0.32670858    -0.06800
O2191       O  0.83940952  0.96488586  0.42099507    -0.75830
Mg2192     Mg  0.90744929  0.95176712  0.23853081     1.58000
H2193       H  0.85820680  0.94527618  0.47615789    -0.06820
C2194       C  0.89604265  0.84236042  0.39027701     0.92340
O2195       O  0.89651786  0.85290954  0.24041409    -0.83060
C2196       C  0.91301973  0.86888415  0.20168757     0.92400
O2197       O  0.75011018  0.82326502  0.48152517    -0.83040
Mg2198     Mg  0.79937801  0.96122991  0.35946053     1.58180
O2199       O  0.90521968  0.86568271  0.35628476    -0.81380
O2200       O  0.78034706  0.47509519  0.23172349    -0.83070
C2201       C  0.93165948  0.84858597  0.17465777     0.00250
C2202       C  0.91110993  0.80818068  0.15968110     0.00250
O2203       O  0.78806272  0.99388555  0.01892799    -0.88660
C2204       C  0.77715001  0.58707027  0.03675990     0.87370
Mg2205     Mg  0.80243307  0.97468642  0.95138159     1.58150
O2206       O  0.71564212  0.49437793  0.08465777    -0.88390
O2207       O  0.78457690  0.98937548  0.09664908    -0.75720
C2208       C  0.63270176  0.92468699  0.86222705     0.92420
O2209       O  0.80283142  0.55525516  0.94607359    -0.75530
O2210       O  0.66001315  0.91951005  0.84642088    -0.83040
Mg2211     Mg  0.82700616  0.55250622  0.02286979     1.57960
C2212       C  0.62402862  0.96762485  0.03779752     0.92340
O2213       O  0.85349386  0.54758676  0.09620427    -0.81300
H2214       H  0.71234959  0.94792666  0.11607052    -0.06650
C2215       C  0.70653627  0.51554719  0.93794629     0.87280
O2216       O  0.75042423  0.91514530  0.96560904    -0.75810
O2217       O  0.78519875  0.56333729  0.05304886    -0.88580
O2218       O  0.64205493  0.46000546  0.06762126    -0.81390
C2219       C  0.69841895  0.56826380  0.13718345     0.92460
C2220       C  0.85772169  0.56371426  0.13558993     0.92310
Mg2221     Mg  0.66511696  0.94058602  0.97314631     1.57950
O2222       O  0.63808632  0.94317254  0.89994869    -0.81310
O2223       O  0.68966895  0.93810579  0.04933761    -0.75550
O2224       O  0.73342572  0.57328594  0.14403424    -0.81390
O2225       O  0.86903776  0.53717078  0.00058177    -0.83100
O2226       O  0.76051921  0.92137794  0.85057677    -0.81420
C2227       C  0.70636061  0.95997370  0.08471008     0.86750
O2228       O  0.70682443  0.92916680  0.94256326    -0.88560
O2229       O  0.70481958  0.49856845  0.97569031    -0.88670
O2230       O  0.70702989  0.50206050  0.89771157    -0.75720
Mg2231     Mg  0.76607007  0.53364788  0.11909918     1.57970
O2232       O  0.67625147  0.54372708  0.10729612    -0.83100
H2233       H  0.78984901  0.95190895  0.05522010    -0.06820
O2234       O  0.77643914  0.99891246  0.91050811    -0.88370
H2235       H  0.78033346  0.54567056  0.87916933    -0.06650
H2236       H  0.69253714  0.87705845  0.96654693    -0.06820
C2237       C  0.78610459  0.53345725  0.91053481     0.86720
C2238       C  0.78732214  0.97708715  0.05644307     0.87310
C2239       C  0.71527518  0.90567215  0.95847591     0.87360
H2240       H  0.70820056  0.54267922  0.93886369    -0.06800
O2241       O  0.74224212  0.57764297  0.02797441    -0.75830
Mg2242     Mg  0.72566383  0.95838698  0.87606134     1.58000
H2243       H  0.79999880  0.61584468  0.02941985    -0.06820
C2244       C  0.86775412  0.52558746  0.95980710     0.92340
O2245       O  0.81821790  0.95292076  0.88588209    -0.83060
C2246       C  0.79643517  0.92845494  0.85591864     0.92400
O2247       O  0.83072688  0.56951301  0.15049677    -0.83040
Mg2248     Mg  0.69026348  0.51849854  0.04281563     1.58180
O2249       O  0.84982453  0.03211183  0.92856948    -0.81380
O2250       O  0.62481867  0.95965685  0.99566129    -0.83070
O2251       O  0.68423997  0.70776896  0.99199637    -0.88660
C2252       C  0.72672515  0.81790839  0.96359253     0.87370
Mg2253     Mg  0.68000282  0.67949728  0.05962416     1.58150
O2254       O  0.77160261  0.77151900  0.92004054    -0.88390
O2255       O  0.69254169  0.70406325  0.91583158    -0.75720
C2256       C  0.86916218  0.78459480  0.13711134     0.92420
O2257       O  0.70071620  0.77044203  0.06057777    -0.75530
O2258       O  0.83825670  0.75907708  0.15899798    -0.83040
Mg2259     Mg  0.66376432  0.74820979  0.99003618     1.57960
C2260       C  0.88206368  0.81958257  0.95117154     0.92340
O2261       O  0.62388913  0.71498129  0.92119970    -0.81300
H2262       H  0.76637089  0.72629670  0.88636636    -0.06650
C2263       C  0.80456386  0.81133710  0.05654904     0.87280
O2264       O  0.72637784  0.66515918  0.03669927    -0.75810
O2265       O  0.71101815  0.78458050  0.95017738    -0.88580
O2266       O  0.85180329  0.80755600  0.92702426    -0.81390
C2267       C  0.79455176  0.86369234  0.85910807     0.92460
C2268       C  0.62234239  0.71112082  0.87593717     0.92310
Mg2269     Mg  0.82973449  0.75803730  0.02101613     1.57950
O2270       O  0.86715845  0.78571245  0.09180287    -0.81310
O2271       O  0.79604201  0.73585096  0.94858975    -0.75550
O2272       O  0.75778189  0.83709476  0.85664491    -0.81390
O2273       O  0.61186181  0.72010063  0.03558431    -0.83100
O2274       O  0.73509916  0.66127935  0.14433022    -0.81420
C2275       C  0.77758512  0.74416347  0.91703978     0.86750
O2276       O  0.78103685  0.71626523  0.05706677    -0.88560
O2277       O  0.80387462  0.79407250  0.02064610    -0.88670
O2278       O  0.79814802  0.79601032  0.09780473    -0.75720
Mg2279     Mg  0.72036747  0.76559496  0.88596549     1.57970
O2280       O  0.81789769  0.85814641  0.88482845    -0.83100
H2281       H  0.67025682  0.65862071  0.96106413    -0.06820
O2282       O  0.72065598  0.73090158  0.09012059    -0.88370
H2283       H  0.72957015  0.77787086  0.12304719    -0.06650
H2284       H  0.77946118  0.67062839  0.02918171    -0.06820
C2285       C  0.71725451  0.75998332  0.09254837     0.86720
C2286       C  0.68192621  0.68895319  0.95682811     0.87310
C2287       C  0.76320684  0.68354478  0.04101421     0.87360
H2288       H  0.81214769  0.84084500  0.05296101    -0.06800
O2289       O  0.76299852  0.83746526  0.97086087    -0.75830
Mg2290     Mg  0.77131737  0.73332584  0.12345487     1.58000
H2291       H  0.70879128  0.82977227  0.97202264    -0.06820
C2292       C  0.61103381  0.69492792  0.06266561     0.92340
O2293       O  0.67370850  0.64344645  0.12636819    -0.83060
C2294       C  0.69841862  0.63479011  0.14306039     0.92400
O2295       O  0.65301774  0.73458805  0.85204107    -0.83040
Mg2296     Mg  0.80965321  0.82352330  0.95210617     1.58180
O2297       O  0.64062519  0.70099310  0.08623024    -0.81380
O2298       O  0.88369395  0.79971876  0.98482988    -0.83070
O2299       O  0.00836416  0.80586073  0.98635925    -0.88660
C2300       C  0.57562319  0.76196505  0.96518372     0.87370
Mg2301     Mg  0.98754707  0.80667707  0.05705425     1.58150
O2302       O  0.48227705  0.72181358  0.92096027    -0.88390
O2303       O  0.99592936  0.80079502  0.91002064    -0.75720
C2304       C  0.91396513  0.62470691  0.12958910     0.92420
O2305       O  0.56365969  0.79435932  0.05737000    -0.75530
O2306       O  0.91826249  0.65440646  0.15043529    -0.83040
Mg2307     Mg  0.57076950  0.82761794  0.98540096     1.57960
C2308       C  0.92134075  0.61610687  0.95017391     0.92340
O2309       O  0.57470090  0.86247813  0.91412540    -0.81300
H2310       H  0.94261618  0.73097471  0.88792621    -0.06650
C2311       C  0.49268462  0.67929508  0.04915825     0.87280
O2312       O  0.92505655  0.76138235  0.03815577    -0.75810
O2313       O  0.55899680  0.77924217  0.95054123    -0.88580
O2314       O  0.43467712  0.64500109  0.92427321    -0.81390
C2315       C  0.55327664  0.69743597  0.86807031     0.92460
C2316       C  0.57415144  0.86300414  0.86874079     0.92310
Mg2317     Mg  0.91397430  0.66199587  0.01733344     1.57950
O2318       O  0.91303709  0.62503263  0.08433016    -0.81310
O2319       O  0.92205136  0.69869263  0.94786769    -0.75550
O2320       O  0.56386195  0.73346889  0.87116747    -0.81390
O2321       O  0.59001900  0.88125056  0.02462677    -0.83100
O2322       O  0.92144269  0.75255089  0.14283478    -0.81420
C2323       C  0.94905471  0.71778541  0.91771073     0.86750
O2324       O  0.92521471  0.70864223  0.05490770    -0.88560
O2325       O  0.47554505  0.68429505  0.01523844    -0.88670
O2326       O  0.49047378  0.68941983  0.09060257    -0.75720
Mg2327     Mg  0.52828294  0.76965376  0.88615919     1.57970
O2328       O  0.51902601  0.67313304  0.87905936    -0.83100
H2329       H  0.97561776  0.82495544  0.95509437    -0.06820
O2330       O  0.00286842  0.76770149  0.08228094    -0.88370
H2331       H  0.54432797  0.76372430  0.11872157    -0.06650
H2332       H  0.87724108  0.70896181  0.03359337    -0.06820
C2333       C  0.53696463  0.77480588  0.08751737     0.86720
C2334       C  0.99246757  0.81108604  0.95107097     0.87310
C2335       C  0.90768704  0.72538040  0.04246677     0.87360
H2336       H  0.50989229  0.66607906  0.04332446    -0.06800
O2337       O  0.55802590  0.72572763  0.96888531    -0.75830
Mg2338     Mg  0.95735646  0.71809478  0.11702630     1.58000
H2339       H  0.60566226  0.77814095  0.97600172    -0.06820
C2340       C  0.55953513  0.87450484  0.04454579     0.92340
O2341       O  0.96863707  0.81089733  0.12990727    -0.83060
C2342       C  0.93488153  0.78910655  0.14504099     0.92400
O2343       O  0.56805050  0.83241441  0.84770198    -0.83040
Mg2344     Mg  0.49576084  0.68126455  0.94724670     1.58180
O2345       O  0.04656617  0.84959220  0.07677686    -0.81380
O2346       O  0.89437530  0.60925880  0.97730824    -0.83070
O2347       O  0.65020566  0.52284575  0.69206652    -0.88660
C2348       C  0.67547423  0.60054115  0.79229570     0.87370
Mg2349     Mg  0.68114301  0.52095968  0.63109930     1.58150
O2350       O  0.60270707  0.58079787  0.70742639    -0.88390
O2351       O  0.59018182  0.50297023  0.71224066    -0.75720
C2352       C  0.73771535  0.69663587  0.53263468     0.92420
O2353       O  0.73054627  0.58415308  0.72313907    -0.75530
O2354       O  0.75157090  0.67365963  0.53457727    -0.83040
Mg2355     Mg  0.67833798  0.53440992  0.76147218     1.57960
C2356       C  0.60680577  0.66703328  0.63797285     0.92340
O2357       O  0.62721911  0.97937789  0.79615887    -0.81300
H2358       H  0.55688395  0.54157433  0.67117354    -0.06650
C2359       C  0.71329720  0.66232240  0.66644800     0.87280
O2360       O  0.64491646  0.53397463  0.58059994    -0.75810
O2361       O  0.65256126  0.56884453  0.77606252    -0.88580
O2362       O  0.59870843  0.64146437  0.66861074    -0.81390
C2363       C  0.58707650  0.62475074  0.81328514     0.92460
C2364       C  0.59393380  0.96633965  0.81469678     0.92310
Mg2365     Mg  0.65259450  0.63263815  0.59117921     1.57950
O2366       O  0.70542555  0.68672120  0.55277540    -0.81310
O2367       O  0.59870010  0.58114409  0.62842107    -0.75550
O2368       O  0.57918692  0.58941206  0.82084985    -0.81390
O2369       O  0.71041200  0.00165866  0.75543512    -0.83100
O2370       O  0.75030258  0.57428423  0.53510951    -0.81420
C2371       C  0.58507010  0.56694600  0.66946298     0.86750
O2372       O  0.67500739  0.59615013  0.57686245    -0.88560
O2373       O  0.67832073  0.64090731  0.66029106    -0.88670
O2374       O  0.73843211  0.66006238  0.64216884    -0.75720
Mg2375     Mg  0.59022566  0.54312162  0.76728981     1.57970
O2376       O  0.60685240  0.64166019  0.77781819    -0.83100
H2377       H  0.60578622  0.48208595  0.65861360    -0.06820
O2378       O  0.72527987  0.57934181  0.64415534    -0.88370
H2379       H  0.77229076  0.61934538  0.67749112    -0.06650
H2380       H  0.62740720  0.56361846  0.53865501    -0.06820
C2381       C  0.74381739  0.59459439  0.68116718     0.86720
C2382       C  0.61516671  0.50139224  0.68696759     0.87310
C2383       C  0.64859829  0.56475475  0.56402659     0.87360
H2384       H  0.72261491  0.68301358  0.69391464    -0.06800
O2385       O  0.67923326  0.63101143  0.77364052    -0.75830
Mg2386     Mg  0.73778623  0.61923930  0.58652322     1.58000
H2387       H  0.69432512  0.60245196  0.82141777    -0.06820
C2388       C  0.72300863  0.99640599  0.71747525     0.92340
O2389       O  0.71403479  0.51570107  0.56547299    -0.83060
C2390       C  0.73947115  0.53792308  0.53546866     0.92400
O2391       O  0.57798123  0.48761731  0.81587731    -0.83040
Mg2392     Mg  0.64170680  0.63894917  0.71771197     1.58180
O2393       O  0.71251885  0.00343190  0.67811469    -0.81380
O2394       O  0.62856279  0.67126625  0.60386481    -0.83070
C2395       C  0.58120695  0.68320255  0.85370865     0.00250
C2396       C  0.56544339  0.64460033  0.83417101     0.00250
C2397       C  0.59096603  0.90314445  0.84470341     0.00250
C2398       C  0.57108388  0.92350129  0.82897868     0.00250
O2399       O  0.98173862  0.62975733  0.67550204    -0.88660
C2400       C  0.89269035  0.56272642  0.76353469     0.87370
Mg2401     Mg  0.98576453  0.66559037  0.61475653     1.58150
O2402       O  0.92960228  0.52575212  0.68324762    -0.88390
O2403       O  0.00425004  0.59341932  0.70366595    -0.75720
C2404       C  0.80538779  0.54153843  0.51707242     0.92420
O2405       O  0.91348443  0.64423340  0.69968434    -0.75530
O2406       O  0.82669334  0.57883520  0.51742396    -0.83040
Mg2407     Mg  0.96094635  0.64014282  0.74105407     1.57960
C2408       C  0.84750443  0.94344553  0.60420719     0.92340
O2409       O  0.51479711  0.64488320  0.78502056    -0.81300
H2410       H  0.97487592  0.52968541  0.64875153    -0.06650
C2411       C  0.85162621  0.55202059  0.65067635     0.87280
O2412       O  0.97527804  0.62142108  0.56000516    -0.75810
O2413       O  0.92646027  0.57888614  0.74923466    -0.88580
O2414       O  0.87567554  0.95869784  0.63250377    -0.81390
C2415       C  0.87721645  0.45818465  0.78695868     0.92460
C2416       C  0.52496626  0.62473227  0.81050235     0.92310
Mg2417     Mg  0.87844951  0.52693988  0.56624209     1.57950
O2418       O  0.82010144  0.52169291  0.53318645    -0.81310
O2419       O  0.93358761  0.52880416  0.60414261    -0.75550
O2420       O  0.90001742  0.49265858  0.80155856    -0.81390
O2421       O  0.49186052  0.70440874  0.73515223    -0.83100
O2422       O  0.93382906  0.68394411  0.52105815    -0.81420
C2423       C  0.94714704  0.52825986  0.64592966     0.86750
O2424       O  0.91237627  0.58741946  0.55403922    -0.88560
O2425       O  0.86670551  0.53368797  0.63763089    -0.88670
O2426       O  0.85314513  0.57984748  0.62705074    -0.75720
Mg2427     Mg  0.95668451  0.54831559  0.75141769     1.57970
O2428       O  0.87879615  0.45391321  0.74313428    -0.83100
H2429       H  0.03094539  0.63469227  0.65402455    -0.06820
O2430       O  0.92608469  0.64915775  0.62287534    -0.88370
H2431       H  0.88549097  0.65800020  0.64956636    -0.06650
H2432       H  0.94735093  0.58183197  0.50971210    -0.06820
C2433       C  0.90863207  0.65207173  0.65701522     0.86720
C2434       C  0.00676858  0.62030156  0.67697928     0.87310
C2435       C  0.94484364  0.59695433  0.53909195     0.87360
H2436       H  0.83492633  0.54315479  0.68264121    -0.06800
O2437       O  0.86763052  0.53009192  0.74860019    -0.75830
Mg2438     Mg  0.88626234  0.62184121  0.56699042     1.58000
H2439       H  0.88429479  0.57607306  0.78968323    -0.06820
C2440       C  0.50339926  0.72666145  0.69938343     0.92340
O2441       O  0.99230262  0.70568347  0.55504945    -0.83060
C2442       C  0.97071048  0.71028193  0.52532692     0.92400
O2443       O  0.00291421  0.58799546  0.81194983    -0.83040
Mg2444     Mg  0.87146962  0.49432037  0.68901777     1.58180
O2445       O  0.50111479  0.71417893  0.65861634    -0.81380
O2446       O  0.84211777  0.96358304  0.57375097    -0.83070
O2447       O  0.97952176  0.84571305  0.68374632    -0.88660
C2448       C  0.93423760  0.91381747  0.70620776     0.87370
Mg2449     Mg  0.99105926  0.82778844  0.61527614     1.58150
O2450       O  0.88420242  0.82111188  0.74811727    -0.88390
O2451       O  0.96272278  0.82809090  0.75815464    -0.75720
C2452       C  0.80453104  0.75511089  0.53074022     0.92420
O2453       O  0.97203871  0.90088630  0.61247307    -0.75530
O2454       O  0.83560504  0.76288333  0.50756434    -0.83040
Mg2455     Mg  0.99779162  0.90507066  0.68827765     1.57960
C2456       C  0.77506879  0.75872516  0.70189949     0.92340
O2457       O  0.52956700  0.91050527  0.76056277    -0.81300
H2458       H  0.88556254  0.77915710  0.78511457    -0.06650
C2459       C  0.85854967  0.83724876  0.60801023     0.87280
O2460       O  0.94102184  0.76706018  0.62938682    -0.75810
O2461       O  0.94745772  0.89350966  0.72033406    -0.88580
O2462       O  0.80060969  0.78143876  0.73026799    -0.81390
C2463       C  0.86484487  0.89134529  0.80241761     0.92460
C2464       C  0.03020026  0.90646450  0.80539656     0.92310
Mg2465     Mg  0.83943957  0.76021135  0.64305561     1.57950
O2466       O  0.80657541  0.75536656  0.57530748    -0.81310
O2467       O  0.86510416  0.76413901  0.71820068    -0.75550
O2468       O  0.89996140  0.89703127  0.80845394    -0.81390
O2469       O  0.55127922  0.92069584  0.66007827    -0.83100
O2470       O  0.94203062  0.77090057  0.51895196    -0.81420
C2471       C  0.87805486  0.78788153  0.75202034     0.86750
O2472       O  0.89069315  0.77198159  0.61006859    -0.88560
O2473       O  0.85931127  0.81992912  0.64442519    -0.88670
O2474       O  0.87270289  0.83488027  0.56905868    -0.75720
Mg2475     Mg  0.93426325  0.86144966  0.78537555     1.57970
O2476       O  0.83980921  0.86329615  0.77831310    -0.83100
H2477       H  0.98821533  0.80681177  0.71770721    -0.06820
O2478       O  0.95507443  0.84564461  0.57843264    -0.88370
H2479       H  0.95156736  0.88788591  0.54518115    -0.06650
H2480       H  0.88610755  0.72228136  0.63005212    -0.06820
C2481       C  0.95969548  0.87840739  0.57721149     0.87260
C2482       C  0.97741508  0.82622848  0.71938680     0.87310
C2483       C  0.90488573  0.75231405  0.62289970     0.87360
H2484       H  0.84559750  0.85497530  0.60932550    -0.06800
O2485       O  0.89862286  0.89966557  0.69618860    -0.75830
Mg2486     Mg  0.90288337  0.80224517  0.54378688     1.58000
H2487       H  0.95370879  0.94387694  0.70004125    -0.06820
C2488       C  0.56584891  0.91100926  0.62871325     0.92340
O2489       O  0.00237493  0.80473196  0.54675924    -0.83060
C2490       C  0.97764151  0.77747601  0.52152524     0.92400
O2491       O  0.99790588  0.89388035  0.82711964    -0.83040
Mg2492     Mg  0.84952988  0.83945740  0.71109337     1.58180
O2493       O  0.54519970  0.88608638  0.59857763    -0.81380
O2494       O  0.78382191  0.74422502  0.66952733    -0.83070
C2495       C  0.81327024  0.90428802  0.83576553     0.00250
C2496       C  0.85240365  0.92007495  0.81688677     0.00250
C2497       C  0.52921413  0.76549216  0.48239005     0.00250
C2498       C  0.99093045  0.75054826  0.50146089     0.00250
C2499       C  0.74452876  0.75943763  0.49384061     0.00250
C2500       C  0.76228343  0.73784577  0.51158682     0.00250
C2501       C  0.73742896  0.98187037  0.48757508     0.00250
C2502       C  0.76034169  0.52028125  0.50693436     0.00250
C2503       C  0.52115154  0.98271407  0.00276298     0.01970
C2504       C  0.53834009  0.51737114  0.02707430     0.01970
C2505       C  0.52961275  0.54437765  0.01157908     0.01970
C2506       C  0.50106041  0.53630297  0.97804408     0.01970
C2507       C  0.98143457  0.50057232  0.95758801     0.01970
C2508       C  0.99314792  0.97464691  0.96745814     0.01970
C2509       C  0.81961774  0.63086402  0.30836203     0.01970
C2510       C  0.85924733  0.64908494  0.31358091     0.01970
C2511       C  0.87795222  0.68063373  0.34252426     0.01970
C2512       C  0.85653625  0.69249726  0.36775454     0.01970
C2513       C  0.81677228  0.67314160  0.36372919     0.01970
C2514       C  0.79854401  0.64124593  0.33612571     0.01970
C2515       C  0.70407003  0.87576584  0.66109286     0.01970
C2516       C  0.66784511  0.87242134  0.66183988     0.01970
C2517       C  0.63489667  0.83634206  0.66452682     0.01970
C2518       C  0.63909207  0.80441617  0.66058981     0.01970
C2519       C  0.67600683  0.80870886  0.65837964     0.01970
C2520       C  0.70752385  0.84422625  0.65268537     0.01970
C2521       C  0.66459651  0.90669277  0.65695727    -0.00470
C2522       C  0.64883193  0.91458322  0.69478543    -0.12340
C2523       C  0.61534290  0.91550735  0.68588239     0.01770
C2524       C  0.60579224  0.92101754  0.63856108    -0.00550
C2525       C  0.63163774  0.92748591  0.60214427    -0.12280
C2526       C  0.66082668  0.91870602  0.61126656     0.01650
H2527       H  0.65372124  0.90629176  0.72995478     0.14630
H2528       H  0.62497853  0.93220815  0.56611548     0.14630
C2529       C  0.68014447  0.91280428  0.57313373     0.36280
C2530       C  0.58610741  0.89390624  0.72043868     0.36190
N2531       N  0.69630991  0.90644447  0.54473549    -0.44060
N2532       N  0.56376257  0.87206324  0.74658057    -0.44060
C2533       C  0.68534592  0.78000493  0.67576414    -0.00470
C2534       C  0.70002888  0.78418915  0.72225891    -0.12340
C2535       C  0.72566390  0.77149282  0.73422388     0.01770
C2536       C  0.73691639  0.75529080  0.69941823    -0.00550
C2537       C  0.71733291  0.74575012  0.65559665    -0.12280
C2538       C  0.69213916  0.75867963  0.64353476     0.01650
H2539       H  0.69421941  0.80016798  0.74748933     0.14630
H2540       H  0.72540250  0.73283544  0.62836691     0.14630
C2541       C  0.67704026  0.75406563  0.59638075     0.36280
C2542       C  0.74324095  0.77759748  0.78037102     0.36190
N2543       N  0.66274758  0.74985177  0.55955339    -0.44060
N2544       N  0.76106627  0.78102604  0.81443296    -0.44060
C2545       C  0.74364744  0.84842747  0.63550612    -0.00470
C2546       C  0.77278362  0.85768129  0.66867437    -0.12340
C2547       C  0.80634519  0.89149327  0.66041404     0.01770
C2548       C  0.81687112  0.90447287  0.61313089    -0.00550
C2549       C  0.79071492  0.88472555  0.57621470    -0.12280
C2550       C  0.75264705  0.85815416  0.58780728     0.01650
H2551       H  0.76448956  0.84918972  0.70519276     0.14630
H2552       H  0.79769015  0.89482847  0.53994328     0.14630
C2553       C  0.72203546  0.84686512  0.55303187     0.36280
C2554       C  0.81257860  0.91776956  0.69702047     0.36190
N2555       N  0.69685625  0.83719111  0.52591572    -0.44060
N2556       N  0.81078810  0.93644442  0.72597146    -0.44060
C2557       C  0.59790396  0.83012273  0.68278168    -0.00470
C2558       C  0.59011754  0.81718964  0.72963286    -0.12340
C2559       C  0.55522271  0.78425641  0.73953634     0.01770
C2560       C  0.52627345  0.76848792  0.70410640    -0.00550
C2561       C  0.53074252  0.79000152  0.66267226    -0.12280
C2562       C  0.56716461  0.82002270  0.65129569     0.01650
H2563       H  0.61440732  0.82544877  0.75387010     0.14630
H2564       H  0.50895711  0.77840281  0.63501527     0.14630
C2565       C  0.57488460  0.83523913  0.60445536     0.36280
C2566       C  0.55855727  0.75853412  0.77118774     0.36190
N2567       N  0.58310620  0.84959319  0.56769109    -0.44060
N2568       N  0.56119722  0.73306424  0.78479139    -0.44060
C2569       C  0.60569131  0.76605706  0.65930953    -0.00470
C2570       C  0.60332518  0.74451732  0.69880309    -0.12340
C2571       C  0.60321143  0.71104191  0.69278462     0.01770
C2572       C  0.59554166  0.69503117  0.64736016    -0.00550
C2573       C  0.58537507  0.71171768  0.60995085    -0.12280
C2574       C  0.59248307  0.74877047  0.61526397     0.01650
H2575       H  0.61655113  0.76000922  0.73103200     0.14630
H2576       H  0.57957495  0.69940676  0.57506072     0.14630
C2577       C  0.59857120  0.77233904  0.57393864     0.36280
C2578       C  0.62752423  0.70573968  0.72664423     0.36190
N2579       N  0.60649157  0.79351399  0.54246945    -0.44060
N2580       N  0.65088923  0.70717285  0.75272867    -0.44060
C2581       C  0.74543874  0.97673429  0.71620359    -0.00470
C2582       C  0.73648614  0.94767320  0.74953976    -0.12340
C2583       C  0.72970847  0.91256572  0.73377712     0.01770
C2584       C  0.73453825  0.90857968  0.68507233    -0.00550
C2585       C  0.75517307  0.94064112  0.65666815    -0.12280
C2586       C  0.76044128  0.97492487  0.67207551     0.01650
H2587       H  0.72649540  0.94934956  0.78421795     0.14630
H2588       H  0.75984199  0.93751342  0.61978107     0.14630
C2589       C  0.77051490  0.00441375  0.63749930     0.36280
C2590       C  0.70972964  0.87989283  0.76495385     0.36190
N2591       N  0.77808440  0.03025715  0.61315888    -0.44060
N2592       N  0.69338708  0.85439132  0.79080427    -0.44060
C2593       C  0.94522739  0.59947321  0.95913693    -0.00470
C2594       C  0.94857027  0.58777709  0.00481070    -0.12340
C2595       C  0.96593442  0.56613181  0.01158879     0.01770
C2596       C  0.98576962  0.56204878  0.97364065    -0.00550
C2597       C  0.48759365  0.57909935  0.92976643    -0.12280
C2598       C  0.46414896  0.59459393  0.92141216     0.01650
H2599       H  0.93379832  0.59151338  0.03383672     0.14630
H2600       H  0.50336924  0.57603158  0.90126911     0.14630
C2601       C  0.45518009  0.60128304  0.87406086     0.36280
C2602       C  0.95867509  0.54462404  0.05530457     0.36190
N2603       N  0.44641539  0.60891332  0.83814063    -0.44060
N2604       N  0.95254316  0.52678344  0.08985651    -0.44060
C2605       C  0.53555378  0.88841394  0.02273687    -0.00470
C2606       C  0.54818254  0.90972769  0.98077084    -0.12340
C2607       C  0.54578326  0.94234502  0.97568031     0.01770
C2608       C  0.53010500  0.95275989  0.01221707    -0.00550
C2609       C  0.01169305  0.92750780  0.04982570    -0.12280
C2610       C  0.01050179  0.89314820  0.05142887     0.01650
H2611       H  0.56562482  0.90531068  0.95631218     0.14630
H2612       H  0.99367827  0.93207849  0.07365561     0.14630
C2613       C  0.97291160  0.86142627  0.05835137     0.36280
C2614       C  0.56295449  0.96755140  0.93593766     0.36190
N2615       N  0.94189014  0.83580985  0.05962812    -0.44060
N2616       N  0.57648231  0.99047222  0.90654386    -0.44060
C2617       C  0.55243333  0.58288584  0.02676052    -0.00470
C2618       C  0.54555803  0.59273968  0.07102328    -0.12340
C2619       C  0.56052420  0.63067080  0.08047922     0.01770
C2620       C  0.58595202  0.65742234  0.04853448    -0.00550
C2621       C  0.59310928  0.64752675  0.00493124    -0.12280
C2622       C  0.57651282  0.61017234  0.99355948     0.01650
H2623       H  0.52685160  0.57122710  0.09624230     0.14630
H2624       H  0.61242954  0.66887584  0.98062249     0.14630
C2625       C  0.58681688  0.60007621  0.94979779     0.36280
C2626       C  0.54485647  0.64268712  0.11683622     0.36190
N2627       N  0.59599590  0.59140242  0.91600098    -0.44060
N2628       N  0.53260491  0.65551190  0.14255007    -0.44060
C2629       C  0.96525439  0.93466007  0.95842972    -0.00470
C2630       C  0.94262194  0.91551503  0.99689660    -0.12340
C2631       C  0.91370214  0.87912211  0.99402630     0.01770
C2632       C  0.90866612  0.85953284  0.95193331    -0.00550
C2633       C  0.92927182  0.87905982  0.91119935    -0.12280
C2634       C  0.95726890  0.91763078  0.91419303     0.01650
H2635       H  0.94759994  0.92976236  0.03029337     0.14630
H2636       H  0.92379093  0.86430998  0.87805932     0.14630
C2637       C  0.97695869  0.93944935  0.87282565     0.36280
C2638       C  0.89269177  0.86441225  0.03728796     0.36190
N2639       N  0.99303735  0.95714045  0.83968699    -0.44060
N2640       N  0.88181680  0.85861217  0.07578676    -0.44060
C2641       C  0.94087769  0.48563683  0.94608978    -0.00470
C2642       C  0.91671775  0.97302631  0.98520224    -0.12340
C2643       C  0.88680898  0.97984873  0.98752535     0.01770
C2644       C  0.88295519  0.50126647  0.95040057    -0.00550
C2645       C  0.90086384  0.50533505  0.90668263    -0.12280
C2646       C  0.93019747  0.49651057  0.90434245     0.01650
H2647       H  0.92649610  0.96703474  0.01838665     0.14630
H2648       H  0.89642430  0.52070300  0.87767869     0.14630
C2649       C  0.95533422  0.50725585  0.86424277     0.36280
C2650       C  0.86898108  0.97357589  0.03330553     0.36190
N2651       N  0.97578857  0.51513732  0.83242690    -0.44060
N2652       N  0.85783125  0.96902099  0.07164610    -0.44060
C2653       C  0.61077872  0.99289880  0.05084829    -0.00470
C2654       C  0.58681487  0.48339745  0.09043247    -0.12340
C2655       C  0.56596204  0.50235581  0.09591143     0.01770
C2656       C  0.57044456  0.02886284  0.06123583    -0.00550
C2657       C  0.60606337  0.04878203  0.03924310    -0.12280
C2658       C  0.62183259  0.02725127  0.02575580     0.01650
H2659       H  0.58017005  0.45841673  0.11199235     0.14630
H2660       H  0.61347149  0.07428297  0.01896179     0.14630
C2661       C  0.64094575  0.03756005  0.98088662     0.36280
C2662       C  0.53450274  0.48931196  0.12886028     0.36190
N2663       N  0.65257000  0.04752700  0.94308025    -0.44060
N2664       N  0.50932438  0.47955079  0.15511214    -0.44060
C2665       C  0.80099499  0.59221058  0.29510874    -0.00470
C2666       C  0.79624312  0.56848575  0.33314634    -0.12340
C2667       C  0.79149116  0.53405506  0.32508523     0.01770
C2668       C  0.77831508  0.51821634  0.28013953    -0.00550
C2669       C  0.77805670  0.54105515  0.24195386    -0.12280
C2670       C  0.79270003  0.57955439  0.24882387     0.01650
H2671       H  0.80502131  0.58030805  0.36847668     0.14630
H2672       H  0.76954925  0.52956068  0.20681133     0.14630
C2673       C  0.80147533  0.60568462  0.20937181     0.36280
C2674       C  0.81541011  0.52692300  0.35695706     0.36190
N2675       N  0.80942820  0.62715331  0.17807394    -0.44060
N2676       N  0.83630181  0.52599345  0.38525447    -0.44060
C2677       C  0.89195536  0.80613725  0.38351830    -0.00470
C2678       C  0.89942731  0.78778185  0.42192985    -0.12340
C2679       C  0.88750893  0.74933394  0.41860002     0.01770
C2680       C  0.87353484  0.73238385  0.37537150    -0.00550
C2681       C  0.86898277  0.75148037  0.33708455    -0.12280
C2682       C  0.87294332  0.78590668  0.34263203     0.01650
H2683       H  0.91103551  0.80235170  0.45496747     0.14630
H2684       H  0.85610586  0.73646626  0.30448925     0.14630
C2685       C  0.84875213  0.79272550  0.31025522     0.36280
C2686       C  0.88501822  0.72616240  0.45904131     0.36190
N2687       N  0.82666790  0.79193676  0.28242312    -0.44060
N2688       N  0.88163442  0.70611525  0.49061035    -0.44060
C2689       C  0.75815249  0.61410309  0.34511412    -0.00470
C2690       C  0.74904012  0.59796572  0.39019036    -0.12340
C2691       C  0.71104890  0.57675536  0.40262293     0.01770
C2692       C  0.68225321  0.56593825  0.36784491    -0.00550
C2693       C  0.69218600  0.57730806  0.32069975    -0.12280
C2694       C  0.73005597  0.60300713  0.30959318     0.01650
H2695       H  0.77153966  0.60536760  0.41676198     0.14630
H2696       H  0.67034932  0.57035980  0.29407206     0.14630
C2697       C  0.73945838  0.62083754  0.26370324     0.36280
C2698       C  0.70251095  0.57642970  0.45118275     0.36190
N2699       N  0.74887381  0.63702941  0.22801536    -0.44060
N2700       N  0.69527147  0.57899490  0.48943953    -0.44060
C2701       C  0.91755047  0.70925824  0.33179749    -0.00470
C2702       C  0.92188648  0.73291927  0.29314242    -0.12340
C2703       C  0.95436466  0.76811079  0.28991291     0.01770
C2704       C  0.98727618  0.77426944  0.31520019    -0.00550
C2705       C  0.98263879  0.75176486  0.35556014    -0.12280
C2706       C  0.94725373  0.71982379  0.36500143     0.01650
H2707       H  0.89770428  0.72610580  0.26934412     0.14630
H2708       H  0.00726231  0.75550937  0.37535655     0.14630
C2709       C  0.94379949  0.69473839  0.40342031     0.36280
C2710       C  0.94667723  0.79841066  0.28111701     0.36190
N2711       N  0.94156212  0.67316005  0.43226878    -0.44060
N2712       N  0.93846396  0.82187257  0.27777242    -0.44060
C2713       C  0.71756459  0.66973792  0.37794115    -0.00470
C2714       C  0.73772199  0.67327990  0.42071790    -0.12340
C2715       C  0.77600932  0.68215685  0.41980605     0.01770
C2716       C  0.79394189  0.69081736  0.37609878    -0.00550
C2717       C  0.77796403  0.70055408  0.33749996    -0.12280
C2718       C  0.73878443  0.68759413  0.33667499     0.01650
H2719       H  0.72180858  0.66039740  0.45268540     0.14630
H2720       H  0.79278521  0.70834158  0.30396206     0.14630
C2721       C  0.72230344  0.68767587  0.29086105     0.36280
C2722       C  0.79108461  0.66980847  0.45886697     0.36190
N2723       N  0.71219617  0.68988773  0.25285414    -0.44060
N2724       N  0.80177760  0.65782116  0.48945416    -0.44060
C2725       C  0.88224747  0.63526434  0.29063505    -0.00470
C2726       C  0.89675991  0.65342245  0.24726672    -0.12340
C2727       C  0.93655254  0.67598957  0.24325217     0.01770
C2728       C  0.96052604  0.67327076  0.27829509    -0.00550
C2729       C  0.94476020  0.64711943  0.31541435    -0.12280
C2730       C  0.90509970  0.62652688  0.32113843     0.01650
H2731       H  0.87885167  0.66034525  0.22459334     0.14630
H2732       H  0.96286354  0.64842660  0.34477010     0.14630
C2733       C  0.89157786  0.61010785  0.36746609     0.36280
C2734       C  0.95184790  0.71059472  0.21480951     0.36190
N2735       N  0.88239844  0.59967437  0.40596183    -0.44060
N2736       N  0.96825990  0.74085413  0.19824228    -0.44060
loop_ 
_geom_bond_atom_site_label_1 
_geom_bond_atom_site_label_2 
_geom_bond_distance 
_geom_bond_site_symmetry_2 
_ccdc_geom_bond_type 
O1           Mg3   2.181       .  S
O1           Mg9   2.253       .  S
O1           C36   1.239   1_455  S
C2           O15   1.238       .  S
C2           O39   1.261       .  A
C2           H41   1.079       .  S
Mg3          O32   2.182       .  S
Mg3          O43   2.257       .  S
Mg3          O14   2.267       .  S
Mg3        O1415   2.126       .  S
O4          Mg46   2.194       .  S
O4          Mg29   2.202       .  S
O4           C25   1.252       .  S
O5           C36   1.262       .  A
O5          Mg29   2.253   1_655  S
C6            O8   1.305       .  A
C6           O20   1.283       .  A
C6          C447   1.566       .  S
O7           C35   1.286       .  A
O7           Mg9   2.336       .  S
O8          Mg40   2.454       .  S
Mg9          O15   2.016       .  S
Mg9        O1391   2.171       .  S
Mg9        O1379   2.481   1_455  S
C10          O48   1.247       .  A
C10          O16   1.254       .  A
C10         C661   1.460       .  S
O11          C18   1.294       .  A
O11       Mg1377   2.481       .  S
H12          C25   1.081       .  S
C13          O27   1.234       .  S
C13          O28   1.258       .  A
C13          H38   1.072       .  S
O14          C37   1.268       .  A
O15         Mg29   2.095       .  S
O16         Mg46   2.105       .  S
C17          O30   1.266       .  A
C17          O22   1.303       .  A
C17          C49   1.504       .  S
C18        O1413   1.311       .  A
C18          C51   1.580       .  S
Mg19         O26   2.058       .  S
Mg19         O27   2.237       .  S
Mg19         O20   2.390       .  S
Mg19         O21   2.327       .  S
Mg19         O48   2.166       .  S
O21          C25   1.284       .  A
O22         Mg29   2.454       .  S
O23          C42   1.239       .  A
O23       Mg1377   2.171       .  S
O24          C44   1.301       .  A
O24         Mg40   2.466       .  S
O26         Mg40   2.139       .  S
O26          C37   1.237       .  S
O27         Mg46   2.174       .  S
O28         Mg40   2.247       .  S
Mg29         O45   2.503   1_455  S
O30         Mg46   2.218       .  S
H31          C36   1.078       .  S
O32         Mg40   2.172       .  S
O32          C35   1.255       .  S
H33          C35   1.081       .  S
H34          C37   1.081       .  S
O39         Mg46   2.227       .  S
C42          O47   1.252       .  A
C42         C676   1.442       .  S
O43          C44   1.265       .  A
C44         C445   1.525       .  S
O45        C1386   1.311       .  A
O47       Mg1371   2.126       .  S
C49         C742   1.534       .  S
C49          C50   1.442       .  D
C50         C167   1.577       .  S
C50         C242   1.576       .  S
C51         C106   1.584       .  S
C51          C52   1.457       .  D
C52         C168   1.514       .  S
C52         C252   1.548       .  S
O53         Mg55   2.174       .  S
O53         Mg61   2.187       .  S
O53          C88   1.242       .  S
C54          O67   1.240       .  S
C54          O91   1.272       .  A
C54          H93   1.081       .  S
Mg55         O84   2.074       .  S
Mg55         O66   2.288   1_455  S
Mg55       O1467   2.159       .  S
Mg55       O1463   2.222   1_455  S
O56         Mg98   2.095       .  S
O56         Mg81   2.103       .  S
O56          C77   1.252       .  S
O57          C88   1.276       .  A
O57         Mg81   2.326       .  S
C58          O60   1.277       .  A
C58         O756   1.278       .  A
C58         C733   1.534       .  S
O59          C87   1.281       .  A
O59         Mg61   2.320       .  S
O60         Mg92   2.373       .  S
Mg61         O67   2.063       .  S
Mg61         O75   2.198       .  S
Mg61         O63   2.318       .  S
C62         O100   1.250       .  A
C62          O68   1.247       .  A
C62         C640   1.443       .  S
O63          C70   1.271       .  A
H64          C77   1.081       .  S
C65          O79   1.243       .  S
C65          O80   1.279       .  A
C65          H90   1.082       .  S
O66          C89   1.266   1_655  A
O67         Mg81   2.122       .  S
O68        Mg782   2.211   1_545  S
C69          O82   1.273       .  A
C69          O74   1.302       .  A
C69         C449   1.547       .  S
C70          O97   1.282       .  A
C70         C445   1.536       .  S
Mg71         O78   2.052       .  S
Mg71         O79   2.170       .  S
Mg71         O73   2.341       .  S
Mg71        O756   2.339       .  S
Mg71        O784   2.205       .  S
O72         C742   1.278       .  A
O72        Mg755   2.339   1_545  S
O73          C77   1.285       .  A
O74         Mg81   2.506       .  S
O75        C1462   1.249       .  A
O76        C1464   1.310   1_455  A
O76         Mg92   2.601       .  S
O78         Mg92   2.112       .  S
O78          C89   1.235       .  S
O79         Mg98   2.188       .  S
O80         Mg92   2.333       .  S
Mg81         O97   2.381       .  S
O82         Mg98   2.282       .  S
H83          C88   1.081   1_655  S
O84         Mg92   2.093       .  S
O84          C87   1.248       .  S
H85          C87   1.081       .  S
H86          C89   1.081       .  S
O91         Mg98   2.293       .  S
C94          O99   1.250       .  A
C94        O1443   1.249       .  A
C94         C652   1.464       .  S
O95          C96   1.261       .  A
O95       Mg1423   2.222       .  S
C96        O1444   1.310       .  A
C96         C149   1.569       .  S
Mg98        O752   2.211       .  S
O99       Mg1423   2.159       .  S
O100       Mg755   2.205   1_545  S
O101       Mg103   2.215       .  S
O101       Mg109   2.167       .  S
O101        C136   1.241       .  S
C102        O115   1.233       .  S
C102        O139   1.265       .  A
C102        H141   1.081       .  S
Mg103       O132   2.108       .  S
Mg103       O147   2.230       .  S
Mg103       O143   2.337       .  S
Mg103       O114   2.272       .  S
O104       Mg146   2.074       .  S
O104       Mg129   2.164       .  S
O104        C125   1.259       .  S
O105        C136   1.274       .  A
O105       Mg129   2.319       .  S
C106        O120   1.288       .  A
C106        O792   1.308       .  A
O107        C135   1.292       .  A
O107       Mg109   2.370       .  S
O108        C790   1.308       .  A
O108       Mg140   2.479       .  S
Mg109       O115   2.088       .  S
Mg109       O123   2.154       .  S
Mg109       O111   2.409       .  S
C110        O148   1.249       .  A
C110        O116   1.253       .  A
C110        C616   1.424   1_565  S
O111        C118   1.281       .  A
H112        C125   1.081       .  S
C113        O127   1.240       .  S
C113        O128   1.272       .  A
C113        H138   1.077       .  S
O114        C137   1.268       .  A
O115       Mg129   2.127       .  S
O116       Mg830   2.199       .  S
C117        O130   1.272       .  A
C117        O122   1.323       .  A
C117        C449   1.599       .  S
C118        O145   1.303       .  A
C118        C447   1.567       .  S
Mg119       O126   2.081       .  S
Mg119       O127   2.173       .  S
Mg119       O121   2.393       .  S
Mg119       O804   2.440       .  S
Mg119       O832   2.180       .  S
O120       Mg803   2.440   1_545  S
O121        C125   1.296       .  A
O122       Mg129   2.678       .  S
O123        C142   1.249       .  A
O124        C144   1.318       .  A
O124       Mg140   2.626       .  S
O126       Mg140   2.143       .  S
O126        C137   1.237       .  S
O127       Mg146   2.209       .  S
O128       Mg140   2.308       .  S
Mg129       O145   2.462       .  S
O130       Mg146   2.354       .  S
H131        C136   1.078       .  S
O132       Mg140   2.162       .  S
O132        C135   1.257       .  S
H133        C135   1.081       .  S
H134        C137   1.081       .  S
O139       Mg146   2.294       .  S
C142        O147   1.256       .  A
C142        C625   1.414       .  S
O143        C144   1.274       .  A
C144        C149   1.578       .  S
Mg146       O800   2.199       .  S
O148       Mg803   2.180       .  S
C149        C150   1.488       .  D
C150        C204   1.584       .  S
C150        C290   1.563       .  S
O151       Mg153   2.272   1_554  S
O151       Mg843   2.096       .  S
O151        C186   1.240       .  S
C152        O165   1.235       .  S
C152        O189   1.268       .  A
C152        H191   1.081       .  S
Mg153       O182   2.073       .  S
Mg153       O197   2.234       .  S
Mg153       O193   2.304       .  S
Mg153       O164   2.297       .  S
O154       Mg196   2.067   1_565  S
O154       Mg179   2.079   1_565  S
O154        C859   1.253       .  S
O155        C186   1.282       .  A
O155       Mg863   2.365       .  S
C156        O158   1.300       .  A
C156        O170   1.272       .  A
C156        C345   1.521       .  S
O157        C185   1.290       .  A
O157       Mg159   2.381   1_556  S
O158       Mg190   2.428       .  S
Mg159       O165   2.129       .  S
Mg159       O835   2.096   1_545  S
Mg159       O173   2.173       .  S
Mg159       O161   2.358       .  S
C160        O198   1.248   1_554  A
C160        O850   1.229       .  A
C160        C601   1.429       .  S
O161        C168   1.272       .  A
H162        C175   1.082       .  S
C163        O177   1.241   1_545  S
C163        O178   1.280       .  A
C163        H188   1.071       .  S
O164        C187   1.269       .  A
O165       Mg179   2.134       .  S
O166        C844   1.229       .  A
O166       Mg196   2.288   1_565  S
C167        O180   1.272       .  A
C167        O172   1.319       .  A
C168        O195   1.295       .  A
Mg169       O176   2.145       .  S
Mg169       O861   2.080       .  S
Mg169       O170   2.339       .  S
Mg169       O171   2.369   1_556  S
Mg169       O198   2.218       .  S
O171        C175   1.287       .  A
O172       Mg179   2.644       .  S
O173        C192   1.247   1_554  A
O174        C194   1.320       .  A
O174       Mg190   2.630       .  S
C175        O838   1.253       .  S
O176       Mg190   2.137       .  S
O176        C187   1.233       .  S
O177       Mg196   2.280   1_566  S
O177       Mg853   2.080       .  S
O178       Mg874   2.339   1_545  S
Mg179       O195   2.403       .  S
Mg179       O839   2.365   1_545  S
O180       Mg196   2.325       .  S
H181        C186   1.078       .  S
O182       Mg190   2.103       .  S
O182        C869   1.255       .  S
H183        C185   1.082       .  S
H184        C187   1.079       .  S
C185        O866   1.255   1_545  S
O189       Mg196   2.290       .  S
Mg190       O862   2.339       .  S
C192        O881   1.231       .  A
C192        C592   1.427       .  S
O193        C194   1.268       .  A
C194        C443   1.564       .  S
O197        C876   1.231       .  A
O199       Mg201   2.172   1_556  S
O199       Mg207   2.170       .  S
O199        C234   1.243       .  S
C200        O213   1.238       .  S
C200        O237   1.271       .  A
C200        H239   1.078       .  S
Mg201       O230   2.091       .  S
Mg201       O245   2.295       .  S
Mg201       O241   2.299       .  S
Mg201       O212   2.312       .  S
O202       Mg244   2.100       .  S
O202       Mg227   2.147       .  S
O202        C223   1.253       .  S
O203        C234   1.275       .  A
O203       Mg227   2.311       .  S
C204        O206   1.304       .  A
C204        O218   1.284       .  A
O205        C233   1.292       .  A
O205       Mg207   2.367   1_554  S
O206       Mg238   2.527       .  S
Mg207       O213   2.057       .  S
Mg207       O221   2.221   1_556  S
Mg207       O209   2.448       .  S
C208        O246   1.254       .  A
C208        O214   1.247       .  A
C208        C580   1.426       .  S
O209        C216   1.290       .  A
H210        C223   1.081       .  S
C211        O225   1.241       .  S
C211        O226   1.277       .  A
C211        H236   1.081       .  S
O212        C235   1.278       .  A
O213       Mg227   2.103       .  S
O214       Mg244   2.220       .  S
C215        O228   1.274       .  A
C215        O220   1.318       .  A
C215        C443   1.563       .  S
C216        O243   1.304       .  A
C216        C343   1.583       .  S
Mg217       O224   2.096       .  S
Mg217       O225   2.173       .  S
Mg217       O218   2.410       .  S
Mg217       O219   2.362   1_554  S
Mg217       O246   2.216   1_554  S
O219        C223   1.288       .  A
O220       Mg227   2.633       .  S
O221        C240   1.249       .  A
O222        C242   1.314       .  A
O222       Mg238   2.590       .  S
O224       Mg238   2.128       .  S
O224        C235   1.244       .  S
O225       Mg244   2.207   1_554  S
O226       Mg238   2.315       .  S
Mg227       O243   2.510       .  S
O228       Mg244   2.266       .  S
H229        C234   1.081       .  S
O230       Mg238   2.172       .  S
O230        C233   1.258       .  S
H231        C233   1.081       .  S
H232        C235   1.081       .  S
O237       Mg244   2.279       .  S
C240        O245   1.259       .  A
C240        C568   1.402       .  S
O241        C242   1.281       .  A
O247       Mg249   2.190   1_556  S
O247      Mg1623   2.189       .  S
O247        C282   1.242       .  S
C248        O261   1.243       .  S
C248        O285   1.276       .  A
C248        H287   1.081       .  S
Mg249       O278   2.070       .  S
Mg249       O293   2.186       .  S
Mg249       O289   2.251       .  S
Mg249       O260   2.300       .  S
O250       Mg292   2.089       .  S
O250       Mg275   2.127   1_655  S
O250       C1639   1.255       .  S
O251        C282   1.278       .  A
O251      Mg1643   2.334       .  S
C252        O254   1.287       .  A
C252        O266   1.280       .  A
O253        C281   1.286       .  A
O253       Mg255   2.356   1_554  S
O254       Mg286   2.432       .  S
Mg255       O261   2.050       .  S
Mg255      O1615   2.189       .  S
Mg255       O269   2.230   1_556  S
Mg255       O257   2.396       .  S
C256        O294   1.246       .  A
C256       O1630   1.243       .  A
C256        C541   1.435       .  S
O257        C264   1.284       .  A
H258        C271   1.081       .  S
C259        O273   1.238       .  S
C259        O274   1.272       .  A
C259        H284   1.080   1_655  S
O260        C283   1.269       .  A
O261       Mg275   2.106       .  S
O262       C1624   1.243       .  A
O262       Mg292   2.219       .  S
C263        O276   1.262       .  A
C263        O268   1.308       .  A
C263        C343   1.556       .  S
C264        O291   1.298       .  A
C264        C345   1.561       .  S
Mg265       O272   2.037       .  S
Mg265      O1641   2.155       .  S
Mg265       O266   2.377       .  S
Mg265       O267   2.363   1_554  S
Mg265       O294   2.210   1_554  S
O267        C271   1.289       .  A
O268       Mg275   2.552       .  S
O269        C288   1.251       .  A
O270        C290   1.304       .  A
O270       Mg286   2.581       .  S
C271       O1618   1.255       .  S
O272       Mg286   2.080       .  S
O272        C283   1.237       .  S
O273       Mg292   2.133   1_554  S
O273      Mg1633   2.155       .  S
O274      Mg1654   2.302       .  S
Mg275       O291   2.466       .  S
Mg275      O1619   2.334   1_455  S
O276       Mg292   2.261   1_455  S
H277        C282   1.082       .  S
O278       Mg286   2.154       .  S
O278       C1649   1.249       .  S
H279        C281   1.081       .  S
H280        C283   1.081       .  S
C281       O1646   1.249       .  S
O285       Mg292   2.304   1_455  S
Mg286      O1642   2.302       .  S
C288       O1661   1.254       .  A
C288        C553   1.455       .  S
O289        C290   1.263       .  A
O293       C1656   1.254       .  A
O295       Mg297   2.169       .  S
O295       Mg303   2.182       .  S
O295        C330   1.231       .  S
C296        O309   1.239       .  S
C296        O333   1.271       .  A
C296        H335   1.081       .  S
Mg297       O326   2.166       .  S
Mg297       O337   2.373       .  S
Mg297       O308   2.248       .  S
Mg297      O1025   2.149       .  S
O298       Mg340   2.101       .  S
O298       Mg323   2.145       .  S
O298        C319   1.252       .  S
O299        C330   1.269       .  A
O299       Mg323   2.283       .  S
C300        O302   1.301       .  A
C300        O314   1.285       .  A
C300        C448   1.564       .  S
O301        C329   1.284       .  A
O301       Mg303   2.318       .  S
O302       Mg334   2.449       .  S
Mg303       O309   2.163       .  S
Mg303      O1001   2.273       .  S
Mg303       O989   2.352   1_545  S
C304        O342   1.263       .  A
C304        O310   1.251       .  A
C304        C520   1.449       .  S
O305        C312   1.279       .  A
O305       Mg987   2.352       .  S
H306        C319   1.081       .  S
C307        O321   1.232       .  S
C307        O322   1.271       .  A
C307        H332   1.075       .  S
O308        C331   1.262       .  A
O309       Mg323   2.176       .  S
O310       Mg340   2.226       .  S
C311        O324   1.249       .  A
C311        O316   1.318       .  A
C311        C344   1.578       .  S
C312       O1023   1.307       .  A
C312        C346   1.553       .  S
Mg313       O320   2.130       .  S
Mg313       O321   2.143       .  S
Mg313       O314   2.407       .  S
Mg313       O315   2.365       .  S
Mg313       O342   2.250       .  S
O315        C319   1.287       .  A
O316       Mg323   2.651       .  S
O317        C336   1.263       .  A
O317       Mg987   2.273       .  S
O318        C338   1.314       .  A
O318       Mg334   2.604       .  S
O320       Mg334   2.207       .  S
O320        C331   1.236       .  S
O321       Mg340   2.183       .  S
O322       Mg334   2.305       .  S
Mg323       O339   2.445   1_545  S
O324       Mg340   2.261       .  S
H325        C330   1.060   1_565  S
O326       Mg334   2.150       .  S
O326        C329   1.252       .  S
H327        C329   1.081       .  S
H328        C331   1.082       .  S
O333       Mg340   2.282       .  S
C336        O341   1.257       .  A
C336        C529   1.471       .  S
O337        C338   1.284       .  A
C338        C450   1.587       .  S
O339        C996   1.307       .  A
O341       Mg981   2.149       .  S
C343        C344   1.483       .  D
C344        C364   1.545       .  S
C345        C346   1.461       .  D
C346       C1780   1.560       .  S
O347       Mg349   2.179       .  S
O347       Mg355   2.183       .  S
O347        C382   1.237       .  S
C348        O361   1.240       .  S
C348        O385   1.272       .  A
C348        H387   1.080       .  S
Mg349       O378   2.146       .  S
Mg349       O389   2.242       .  S
Mg349       O360   2.270       .  S
Mg349      O1761   2.165       .  S
O350       Mg392   2.021   1_545  S
O350       Mg375   2.176       .  S
O350        C371   1.254       .  S
O351        C382   1.274       .  A
O351       Mg375   2.300       .  S
C352        O354   1.314       .  A
C352        O366   1.283       .  A
C352        C450   1.581       .  S
O353        C381   1.276       .  A
O353       Mg355   2.281       .  S
O354       Mg386   2.548       .  S
Mg355       O361   2.165       .  S
Mg355      O1737   2.263       .  S
Mg355      O1725   2.386       .  S
C356        O394   1.261       .  A
C356        O362   1.256       .  A
C356        C496   1.455       .  S
O357        C364   1.282       .  A
O357      Mg1723   2.386   1_455  S
H358        C371   1.081       .  S
C359        O373   1.236       .  S
C359        O374   1.274       .  A
C359        H384   1.078       .  S
O360        C383   1.266       .  A
O361       Mg375   2.121       .  S
O362      Mg1076   2.247       .  S
C363        O376   1.264       .  A
C363        O368   1.302       .  A
C363       C1128   1.590       .  S
C364       O1759   1.298       .  A
Mg365       O372   2.151       .  S
Mg365       O373   2.139       .  S
Mg365       O366   2.402       .  S
Mg365       O367   2.396       .  S
Mg365      O1078   2.239   1_545  S
O367        C371   1.294       .  A
O368       Mg375   2.664   1_565  S
O369        C388   1.269   1_655  A
O369      Mg1723   2.263       .  S
O370        C390   1.322       .  A
O370       Mg386   2.608       .  S
O372       Mg386   2.164       .  S
O372        C383   1.234       .  S
O373       Mg392   2.209   1_545  S
O374       Mg386   2.288       .  S
Mg375       O391   2.441       .  S
O376       Mg392   2.336       .  S
H377        C382   1.067       .  S
O378       Mg386   2.114       .  S
O378        C381   1.246       .  S
H379        C381   1.081       .  S
H380        C383   1.081       .  S
O385       Mg392   2.310   1_545  S
C388        O393   1.255       .  A
C388        C508   1.479       .  S
O389        C390   1.268       .  A
C390        C446   1.558       .  S
O391       C1732   1.298       .  A
Mg392      O1046   2.247       .  S
O393      Mg1717   2.165   1_455  S
O394      Mg1049   2.239       .  S
O395       Mg397   2.223       .  S
O395       Mg403   2.146       .  S
O395        C430   1.244       .  S
C396        O409   1.237       .  S
C396        O433   1.267       .  A
C396        H435   1.081       .  S
Mg397       O426   2.149       .  S
Mg397       O437   2.323       .  S
Mg397       O408   2.298       .  S
Mg397      O1809   2.316       .  S
O398       Mg440   2.122       .  S
O398       Mg423   2.123       .  S
O398        C419   1.247       .  S
O399        C430   1.277       .  A
O399       Mg423   2.314       .  S
C400        O402   1.305       .  A
C400        O414   1.262       .  A
C400        C448   1.558       .  S
O401        C429   1.283       .  A
O401       Mg403   2.331       .  S
O402       Mg434   2.547       .  S
Mg403       O409   2.049       .  S
Mg403      O1785   2.073       .  S
Mg403      O1773   2.339       .  S
C404        O442   1.247       .  A
C404        O410   1.263       .  A
C404        C484   1.460       .  S
O405       C1780   1.276       .  A
O405      Mg1771   2.339   1_455  S
H406        C419   1.081       .  S
C407        O421   1.241       .  S
C407        O422   1.277       .  A
C407        H432   1.078       .  S
O408        C431   1.266       .  A
O409       Mg423   2.143       .  S
O410       Mg440   2.243       .  S
C411        O424   1.277       .  A
C411        O416   1.311       .  A
C411        C444   1.546       .  S
C412        O439   1.289       .  A
C412       O1773   1.276       .  A
C412       C1714   1.560       .  S
Mg413       O420   2.091       .  S
Mg413       O421   2.141       .  S
Mg413       O414   2.255       .  S
Mg413       O415   2.314       .  S
Mg413       O442   2.127       .  S
O415        C419   1.280       .  A
O416       Mg423   2.542       .  S
O417        C436   1.245       .  A
O417      Mg1771   2.073   1_455  S
O418        C438   1.310       .  A
O418       Mg434   2.579       .  S
O420       Mg434   2.142       .  S
O420        C431   1.233       .  S
O421       Mg440   2.181       .  S
O422       Mg434   2.326       .  S
Mg423       O439   2.487       .  S
O424       Mg440   2.282       .  S
H425        C430   1.074       .  S
O426       Mg434   2.174       .  S
O426        C429   1.248       .  S
H427        C429   1.081       .  S
H428        C431   1.081       .  S
O433       Mg440   2.276       .  S
C436        O441   1.268       .  A
C436        C472   1.458       .  S
O437        C438   1.274       .  A
C438        C446   1.558       .  S
O441      Mg1765   2.316   1_455  S
C443        C444   1.468       .  D
C444       C1047   1.590       .  S
C445       C1814   1.445   1_455  D
C446       C1813   1.445       .  D
C447        C448   1.452       .  D
C449       C1134   1.470       .  D
C450       C1133   1.470   1_545  D
C451        C556   1.447       .  S
C451       C1136   1.409       .  A
C451       C1824   1.399   1_454  A
C452       C1288   1.471       .  S
C452        C453   1.367       .  A
C452       C1135   1.409   1_545  A
C453        C565   1.431       .  S
C453        C454   1.379   1_554  A
C454       C1912   1.453   1_455  S
C454       C1823   1.392   1_455  A
C455        C589   1.449   1_545  S
C455       C1822   1.392       .  A
C455       C1140   1.370   1_545  A
C456        C577   1.462       .  S
C456       C1819   1.399   1_556  A
C456       C1139   1.370       .  A
C457        C613   1.416       .  S
C457        C458   1.377       .  A
C457        C462   1.380       .  A
C458        C673   1.464       .  S
C458        C459   1.392       .  A
C459        C649   1.451       .  S
C459        C460   1.390       .  A
C460        C628   1.428       .  S
C460        C461   1.378       .  A
C461        C664   1.467       .  S
C461        C462   1.378       .  A
C462        C637   1.451       .  S
C463        C532   1.450       .  S
C463        C464   1.385       .  A
C463        C468   1.382       .  A
C464        C469   1.464       .  S
C464        C465   1.397       .  A
C465        C505   1.472       .  S
C465        C466   1.395       .  A
C466        C517   1.458       .  S
C466        C467   1.398       .  A
C467        C481   1.462       .  S
C467        C468   1.367       .  A
C468        C493   1.459       .  S
C469        C470   1.376       .  A
C469        C474   1.402       .  A
C470        H475   1.087       .  S
C470        C471   1.375       .  A
C471        C472   1.427       .  A
C471        C478   1.439       .  S
C472        C473   1.399       .  A
C473        H476   1.084       .  S
C473        C474   1.397       .  A
C474        C477   1.433       .  S
C477        N479   1.153       .  T
C478        N480   1.155       .  T
C481        C482   1.407       .  A
C481        C486   1.393       .  A
C482        H487   1.080       .  S
C482        C483   1.391       .  A
C483        C484   1.398       .  A
C483        C490   1.436       .  S
C484        C485   1.406       .  A
C485        H488   1.083       .  S
C485        C486   1.382       .  A
C486        C489   1.429       .  S
C489        N491   1.151       .  T
C490        N492   1.154       .  T
C493        C494   1.381       .  A
C493        C498   1.400       .  A
C494        H499   1.086       .  S
C494        C495   1.375       .  A
C495        C496   1.418       .  A
C495        C502   1.432       .  S
C496        C497   1.407       .  A
C497        H500   1.084       .  S
C497        C498   1.394       .  A
C498        C501   1.443       .  S
C501        N503   1.158       .  T
C502        N504   1.157       .  T
C505        C506   1.396       .  A
C505        C510   1.391       .  A
C506        H511   1.086       .  S
C506        C507   1.393       .  A
C507        C508   1.411       .  A
C507        C514   1.413       .  S
C508        C509   1.404       .  A
C509        H512   1.081       .  S
C509        C510   1.389       .  A
C510        C513   1.421       .  S
C513        N515   1.150       .  T
C514        N516   1.147       .  T
C517        C518   1.376       .  A
C517        C522   1.403       .  A
C518        H523   1.087       .  S
C518        C519   1.372       .  A
C519        C520   1.412       .  A
C519        C526   1.437       .  S
C520        C521   1.402       .  A
C521        H524   1.085       .  S
C521        C522   1.396       .  A
C522        C525   1.437       .  S
C525        N527   1.155       .  T
C526        N528   1.156       .  T
C529        C530   1.395       .  A
C529        C534   1.416       .  A
C530        H535   1.084       .  S
C530        C531   1.394       .  A
C531        C532   1.420       .  A
C531        C538   1.444       .  S
C532        C533   1.386       .  A
C533        H536   1.086       .  S
C533        C534   1.380       .  A
C534        C537   1.424       .  S
C537        N539   1.150       .  T
C538        N540   1.157       .  T
C541        C542   1.392   1_556  A
C541       C1914   1.395       .  A
C542        H547   1.079       .  S
C542        C543   1.374       .  A
C543        C544   1.409   1_554  A
C543        C550   1.444       .  S
C544       C1822   1.453       .  S
C544       C1913   1.391       .  A
C545        H548   1.081   1_655  S
C545        C546   1.379       .  A
C545       C1912   1.391       .  A
C546       C1909   1.395       .  A
C546        C549   1.433       .  S
C549        N551   1.153       .  T
C550        N552   1.156       .  T
C553        C554   1.396   1_554  A
C553       C1926   1.391       .  A
C554        H559   1.072       .  S
C554        C555   1.379       .  A
C555        C556   1.399   1_556  A
C555        C562   1.433       .  S
C556       C1925   1.396       .  A
C557        H560   1.081       .  S
C557        C558   1.372       .  A
C557       C1924   1.396       .  A
C558       C1921   1.391       .  A
C558        C561   1.419       .  S
C561        N563   1.152       .  T
C562        N564   1.152       .  T
C565        C566   1.398       .  A
C565        C570   1.398   1_554  A
C566        H571   1.081       .  S
C566        C567   1.376       .  A
C567        C568   1.383       .  A
C567        C574   1.431       .  S
C568        C569   1.386       .  A
C569        H572   1.069   1_554  S
C569        C570   1.361   1_554  A
C570        C573   1.445       .  S
C573        N575   1.155       .  T
C574        N576   1.153       .  T
C577        C578   1.379       .  A
C577        C582   1.397       .  A
C578        H583   1.082   1_556  S
C578        C579   1.348       .  A
C579        C580   1.403       .  A
C579        C586   1.437   1_556  S
C580        C581   1.406       .  A
C581        H584   1.083       .  S
C581        C582   1.399       .  A
C582        C585   1.436       .  S
C585        N587   1.157       .  T
C586        N588   1.156       .  T
C589        C594   1.383       .  A
C589       C1274   1.393       .  A
C590        H595   1.077   1_556  S
C590        C591   1.358       .  A
C590       C1273   1.393       .  A
C591       C1276   1.401       .  A
C591        C598   1.446   1_556  S
C592        C593   1.407       .  A
C592       C1275   1.401   1_545  A
C593        H596   1.083       .  S
C593        C594   1.390   1_545  A
C594        C597   1.440   1_565  S
C597        N599   1.156       .  T
C598        N600   1.157       .  T
C601        C606   1.411       .  A
C601       C1286   1.405       .  A
C602        H607   1.085       .  S
C602        C603   1.402   1_565  A
C602       C1285   1.405       .  A
C603       C1288   1.383       .  A
C603        C610   1.445   1_545  S
C604       C1136   1.471       .  S
C604        C605   1.388       .  A
C604       C1287   1.383       .  A
C605        H608   1.077       .  S
C605        C606   1.374       .  A
C606        C609   1.437   1_554  S
C609        N611   1.156       .  T
C610        N612   1.157       .  T
C613        C614   1.377       .  A
C613        C618   1.390       .  A
C614        H619   1.092       .  S
C614        C615   1.338       .  A
C615        C616   1.407       .  A
C615        C622   1.427       .  S
C616        C617   1.409       .  A
C617        H620   1.082       .  S
C617        C618   1.385       .  A
C618        C621   1.442       .  S
C621        N623   1.158       .  T
C622        N624   1.157       .  T
C625        C626   1.412       .  A
C625        C630   1.405       .  A
C626        H631   1.083       .  S
C626        C627   1.390       .  A
C627        C628   1.382       .  A
C627        C634   1.436       .  S
C628        C629   1.378       .  A
C629        H632   1.086       .  S
C629        C630   1.339       .  A
C630        C633   1.437       .  S
C633        N635   1.158       .  T
C634        N636   1.156       .  T
C637        C638   1.388       .  A
C637        C642   1.393       .  A
C638        H643   1.084       .  S
C638        C639   1.366       .  A
C639        C640   1.396       .  A
C639        C646   1.421       .  S
C640        C641   1.399       .  A
C641        H644   1.069       .  S
C641        C642   1.378       .  A
C642        C645   1.433       .  S
C645        N647   1.153       .  T
C646        N648   1.147       .  T
C649        C650   1.392       .  A
C649        C654   1.391       .  A
C650        H655   1.084       .  S
C650        C651   1.369       .  A
C651        C652   1.393       .  A
C651        C658   1.425       .  S
C652        C653   1.400       .  A
C653        H656   1.065       .  S
C653        C654   1.383       .  A
C654        C657   1.431       .  S
C657        N659   1.153       .  T
C658        N660   1.154       .  T
C661        C662   1.408       .  A
C661        C666   1.411       .  A
C662        H667   1.079       .  S
C662        C663   1.385       .  A
C663        C664   1.390       .  A
C663        C670   1.442       .  S
C664        C665   1.399       .  A
C665        H668   1.083       .  S
C665        C666   1.379       .  A
C666        C669   1.442       .  S
C669        N671   1.157       .  T
C670        N672   1.157       .  T
C673        C674   1.394       .  A
C673        C678   1.407       .  A
C674        H679   1.084       .  S
C674        C675   1.387       .  A
C675        C676   1.404       .  A
C675        C682   1.449       .  S
C676        C677   1.389       .  A
C677        H680   1.074       .  S
C677        C678   1.383       .  A
C678        C681   1.442       .  S
C681        N683   1.157       .  T
C682        N684   1.156       .  T
O685       Mg687   2.181       .  S
O685       Mg693   2.253       .  S
O685        C720   1.239   1_455  S
C686        O699   1.238       .  S
C686        O723   1.261       .  A
C686        H725   1.079       .  S
Mg687       O716   2.182       .  S
Mg687      O2099   2.126       .  S
Mg687       O727   2.257       .  S
Mg687       O698   2.267       .  S
O688       Mg730   2.194       .  S
O688       Mg713   2.202       .  S
O688        C709   1.252       .  S
O689        C720   1.262       .  A
O689       Mg713   2.253   1_655  S
C690        O692   1.305       .  A
C690        O704   1.283       .  A
C690       C1131   1.566       .  S
O691        C719   1.286       .  A
O691       Mg693   2.336       .  S
O692       Mg724   2.454       .  S
Mg693       O699   2.016       .  S
Mg693      O2075   2.171       .  S
Mg693      O2063   2.481   1_455  S
C694        O732   1.247       .  A
C694        O700   1.254       .  A
C694       C1345   1.460       .  S
O695        C702   1.294       .  A
O695      Mg2061   2.481       .  S
H696        C709   1.081       .  S
C697        O711   1.234       .  S
C697        O712   1.258       .  A
C697        H722   1.072       .  S
O698        C721   1.268       .  A
O699       Mg713   2.095       .  S
O700       Mg730   2.105       .  S
C701        O714   1.266       .  A
C701        O706   1.303       .  A
C701        C733   1.504       .  S
C702       O2097   1.311       .  A
C702        C735   1.580       .  S
Mg703       O710   2.058       .  S
Mg703       O711   2.237       .  S
Mg703       O704   2.390       .  S
Mg703       O705   2.327       .  S
Mg703       O732   2.166       .  S
O705        C709   1.284       .  A
O706       Mg713   2.454       .  S
O707        C726   1.239       .  A
O707      Mg2061   2.171       .  S
O708        C728   1.301       .  A
O708       Mg724   2.466       .  S
O710       Mg724   2.139       .  S
O710        C721   1.237       .  S
O711       Mg730   2.174       .  S
O712       Mg724   2.247       .  S
Mg713       O729   2.503   1_455  S
O714       Mg730   2.218       .  S
H715        C720   1.078       .  S
O716       Mg724   2.172       .  S
O716        C719   1.255       .  S
H717        C719   1.081       .  S
H718        C721   1.081       .  S
O723       Mg730   2.227       .  S
C726        O731   1.252       .  A
C726       C1360   1.442       .  S
O727        C728   1.265       .  A
C728       C1129   1.525       .  S
O729       C2070   1.311       .  A
O731      Mg2055   2.126       .  S
C733        C734   1.442       .  D
C734        C851   1.577       .  S
C734        C926   1.576       .  S
C735        C790   1.584       .  S
C735        C736   1.457       .  D
C736        C852   1.514       .  S
C736        C936   1.548       .  S
O737       Mg739   2.174       .  S
O737       Mg745   2.187       .  S
O737        C772   1.242       .  S
C738        O751   1.240       .  S
C738        O775   1.272       .  A
C738        H777   1.081       .  S
Mg739       O768   2.074       .  S
Mg739      O2151   2.159       .  S
Mg739      O2147   2.222   1_455  S
Mg739       O750   2.288   1_455  S
O740       Mg782   2.095       .  S
O740       Mg765   2.103       .  S
O740        C761   1.252       .  S
O741        C772   1.276       .  A
O741       Mg765   2.326       .  S
C742        O744   1.277       .  A
O743        C771   1.281       .  A
O743       Mg745   2.320       .  S
O744       Mg776   2.373   1_545  S
Mg745       O751   2.063       .  S
Mg745       O759   2.198       .  S
Mg745       O747   2.318       .  S
C746        O784   1.250       .  A
C746        O752   1.247       .  A
C746       C1324   1.443       .  S
O747        C754   1.271       .  A
H748        C761   1.081       .  S
C749        O763   1.243       .  S
C749        O764   1.279       .  A
C749        H774   1.082       .  S
O750        C773   1.266   1_655  A
O751       Mg765   2.122       .  S
C753        O766   1.273       .  A
C753        O758   1.302       .  A
C753       C1133   1.547       .  S
C754        O781   1.282       .  A
C754       C1129   1.536       .  S
Mg755       O762   2.052       .  S
Mg755       O763   2.170       .  S
Mg755       O757   2.341       .  S
O757        C761   1.285       .  A
O758       Mg765   2.506       .  S
O759       C2146   1.249       .  A
O760       C2148   1.310   1_455  A
O760       Mg776   2.601       .  S
O762       Mg776   2.112       .  S
O762        C773   1.235       .  S
O763       Mg782   2.188       .  S
O764       Mg776   2.333       .  S
Mg765       O781   2.381       .  S
O766       Mg782   2.282       .  S
H767        C772   1.081   1_655  S
O768       Mg776   2.093       .  S
O768        C771   1.248       .  S
H769        C771   1.081       .  S
H770        C773   1.081       .  S
O775       Mg782   2.293       .  S
C778       O2127   1.249       .  A
C778        O783   1.250       .  A
C778       C1336   1.464       .  S
O779        C780   1.261       .  A
O779      Mg2107   2.222       .  S
C780       O2128   1.310       .  A
C780        C833   1.569       .  S
O783      Mg2107   2.159       .  S
O785       Mg787   2.215       .  S
O785       Mg793   2.167       .  S
O785        C820   1.241       .  S
C786        O799   1.233       .  S
C786        O823   1.265       .  A
C786        H825   1.081       .  S
Mg787       O816   2.108       .  S
Mg787       O831   2.230       .  S
Mg787       O827   2.337       .  S
Mg787       O798   2.272       .  S
O788       Mg830   2.074       .  S
O788       Mg813   2.164       .  S
O788        C809   1.259       .  S
O789        C820   1.274       .  A
O789       Mg813   2.319       .  S
C790        O804   1.289       .  A
O791        C819   1.292       .  A
O791       Mg793   2.370       .  S
O792       Mg824   2.479   1_545  S
Mg793       O799   2.088       .  S
Mg793       O807   2.154       .  S
Mg793       O795   2.409       .  S
C794        O832   1.249       .  A
C794        O800   1.253       .  A
C794       C1300   1.424       .  S
O795        C802   1.281       .  A
H796        C809   1.081       .  S
C797        O811   1.240       .  S
C797        O812   1.272       .  A
C797        H822   1.077   1_565  S
O798        C821   1.268       .  A
O799       Mg813   2.127       .  S
C801        O814   1.272       .  A
C801        O806   1.323       .  A
C801       C1133   1.599       .  S
C802        O829   1.303       .  A
C802       C1131   1.567       .  S
Mg803       O810   2.081       .  S
Mg803       O811   2.173       .  S
Mg803       O805   2.393       .  S
O805        C809   1.296       .  A
O806       Mg813   2.678       .  S
O807        C826   1.249       .  A
O808        C828   1.318       .  A
O808       Mg824   2.626       .  S
O810       Mg824   2.143       .  S
O810        C821   1.237       .  S
O811       Mg830   2.209       .  S
O812       Mg824   2.308       .  S
Mg813       O829   2.462       .  S
O814       Mg830   2.354       .  S
H815        C820   1.078       .  S
O816       Mg824   2.162       .  S
O816        C819   1.257       .  S
H817        C819   1.081       .  S
H818        C821   1.081       .  S
O823       Mg830   2.294       .  S
C826        O831   1.256       .  A
C826       C1309   1.414       .  S
O827        C828   1.274       .  A
C828        C833   1.578       .  S
C833        C834   1.488       .  D
C834        C888   1.584       .  S
C834        C974   1.563       .  S
O835       Mg837   2.272   1_554  S
O835        C870   1.240       .  S
C836        O849   1.235       .  S
C836        O873   1.268       .  A
C836        H875   1.081       .  S
Mg837       O866   2.073       .  S
Mg837       O881   2.234   1_565  S
Mg837       O877   2.304       .  S
Mg837       O848   2.297       .  S
O838       Mg880   2.067       .  S
O838       Mg863   2.079       .  S
O839        C870   1.282       .  A
C840        O842   1.300       .  A
C840        O854   1.272       .  A
C840       C1029   1.521       .  S
O841        C869   1.290       .  A
O841       Mg843   2.381   1_556  S
O842       Mg874   2.428       .  S
Mg843       O849   2.129       .  S
Mg843       O857   2.173       .  S
Mg843       O845   2.358       .  S
C844        O882   1.248   1_554  A
C844       C1285   1.429       .  S
O845        C852   1.272       .  A
H846        C859   1.082       .  S
C847        O861   1.241       .  S
C847        O862   1.280       .  A
C847        H872   1.071       .  S
O848        C871   1.269       .  A
O849       Mg863   2.134       .  S
O850       Mg880   2.288       .  S
C851        O864   1.272       .  A
C851        O856   1.319       .  A
C852        O879   1.295       .  A
Mg853       O860   2.144       .  S
Mg853       O854   2.339       .  S
Mg853       O855   2.369   1_556  S
Mg853       O882   2.218       .  S
O855        C859   1.287       .  A
O856       Mg863   2.644       .  S
O857        C876   1.247   1_554  A
O858        C878   1.320       .  A
O858       Mg874   2.630       .  S
O860       Mg874   2.137       .  S
O860        C871   1.233       .  S
O861       Mg880   2.280   1_556  S
Mg863       O879   2.403       .  S
O864       Mg880   2.325       .  S
H865        C870   1.078       .  S
O866       Mg874   2.103       .  S
H867        C869   1.082       .  S
H868        C871   1.079       .  S
O873       Mg880   2.290       .  S
C876       C1276   1.427       .  S
O877        C878   1.268       .  A
C878       C1127   1.564       .  S
O883       Mg885   2.172   1_556  S
O883       Mg891   2.170       .  S
O883        C918   1.243       .  S
C884        O897   1.238       .  S
C884        O921   1.271       .  A
C884        H923   1.078       .  S
Mg885       O914   2.091       .  S
Mg885       O929   2.295       .  S
Mg885       O925   2.299       .  S
Mg885       O896   2.312       .  S
O886       Mg928   2.100       .  S
O886       Mg911   2.147       .  S
O886        C907   1.253       .  S
O887        C918   1.275       .  A
O887       Mg911   2.311       .  S
C888        O890   1.304       .  A
C888        O902   1.284       .  A
O889        C917   1.292       .  A
O889       Mg891   2.367   1_554  S
O890       Mg922   2.528       .  S
Mg891       O897   2.057       .  S
Mg891       O905   2.221   1_556  S
Mg891       O893   2.448       .  S
C892        O930   1.254       .  A
C892        O898   1.247       .  A
C892       C1264   1.426       .  S
O893        C900   1.290       .  A
H894        C907   1.081       .  S
C895        O909   1.241       .  S
C895        O910   1.277       .  A
C895        H920   1.081       .  S
O896        C919   1.278       .  A
O897       Mg911   2.103       .  S
O898       Mg928   2.220       .  S
C899        O912   1.274       .  A
C899        O904   1.318       .  A
C899       C1127   1.563       .  S
C900        O927   1.304       .  A
C900       C1027   1.583       .  S
Mg901       O908   2.096       .  S
Mg901       O909   2.173       .  S
Mg901       O902   2.410       .  S
Mg901       O903   2.362   1_554  S
Mg901       O930   2.216   1_554  S
O903        C907   1.288       .  A
O904       Mg911   2.633       .  S
O905        C924   1.249       .  A
O906        C926   1.314       .  A
O906       Mg922   2.590       .  S
O908       Mg922   2.128       .  S
O908        C919   1.244       .  S
O909       Mg928   2.207   1_554  S
O910       Mg922   2.315       .  S
Mg911       O927   2.510       .  S
O912       Mg928   2.266       .  S
H913        C918   1.081       .  S
O914       Mg922   2.172       .  S
O914        C917   1.258       .  S
H915        C917   1.081       .  S
H916        C919   1.081       .  S
O921       Mg928   2.279       .  S
C924        O929   1.259       .  A
C924       C1252   1.402       .  S
O925        C926   1.281       .  A
O931       Mg933   2.190   1_556  S
O931      Mg2307   2.189       .  S
O931        C966   1.242       .  S
C932        O945   1.243       .  S
C932        O969   1.276       .  A
C932        H971   1.081       .  S
Mg933       O962   2.070       .  S
Mg933       O977   2.186       .  S
Mg933       O973   2.251       .  S
Mg933       O944   2.300       .  S
O934       Mg976   2.089       .  S
O934       Mg959   2.127   1_655  S
O934       C2323   1.255       .  S
O935        C966   1.278       .  A
O935      Mg2327   2.334       .  S
C936        O938   1.287       .  A
C936        O950   1.280       .  A
O937        C965   1.286       .  A
O937       Mg939   2.356   1_554  S
O938       Mg970   2.432       .  S
Mg939      O2299   2.189       .  S
Mg939       O945   2.050       .  S
Mg939       O953   2.230   1_556  S
Mg939       O941   2.396       .  S
C940        O978   1.246       .  A
C940       O2314   1.243       .  A
C940       C1225   1.435       .  S
O941        C948   1.284       .  A
H942        C955   1.081       .  S
C943        O957   1.238       .  S
C943        O958   1.272       .  A
C943        H968   1.080   1_655  S
O944        C967   1.269       .  A
O945       Mg959   2.106       .  S
O946       C2308   1.243       .  A
O946       Mg976   2.219       .  S
C947        O960   1.262       .  A
C947        O952   1.308       .  A
C947       C1027   1.556       .  S
C948        O975   1.298       .  A
C948       C1029   1.561       .  S
Mg949       O956   2.037       .  S
Mg949      O2325   2.155       .  S
Mg949       O950   2.377       .  S
Mg949       O951   2.363   1_554  S
Mg949       O978   2.210   1_554  S
O951        C955   1.289       .  A
O952       Mg959   2.552       .  S
O953        C972   1.251       .  A
O954        C974   1.304       .  A
O954       Mg970   2.581       .  S
C955       O2302   1.255       .  S
O956       Mg970   2.080       .  S
O956        C967   1.237       .  S
O957      Mg2317   2.155       .  S
O957       Mg976   2.133   1_554  S
O958      Mg2338   2.302       .  S
Mg959      O2303   2.334   1_455  S
Mg959       O975   2.466       .  S
O960       Mg976   2.261   1_455  S
H961        C966   1.082       .  S
O962       Mg970   2.154       .  S
O962       C2333   1.249       .  S
H963        C965   1.081       .  S
H964        C967   1.081       .  S
C965       O2330   1.249       .  S
O969       Mg976   2.304   1_455  S
Mg970      O2326   2.302       .  S
C972       O2345   1.254       .  A
C972       C1237   1.455       .  S
O973        C974   1.263       .  A
O977       C2340   1.254       .  A
O979       Mg981   2.169       .  S
O979       Mg987   2.182       .  S
O979       C1014   1.231       .  S
C980        O993   1.239       .  S
C980       O1017   1.271       .  A
C980       H1019   1.081       .  S
Mg981      O1010   2.166       .  S
Mg981      O1021   2.373       .  S
Mg981       O992   2.248       .  S
O982      Mg1024   2.101       .  S
O982      Mg1007   2.145       .  S
O982       C1003   1.252       .  S
O983       C1014   1.269       .  A
O983      Mg1007   2.283       .  S
C984        O986   1.301       .  A
C984        O998   1.285       .  A
C984       C1132   1.564       .  S
O985       C1013   1.284       .  A
O985       Mg987   2.318       .  S
O986      Mg1018   2.449       .  S
Mg987       O993   2.163       .  S
C988       O1026   1.263       .  A
C988        O994   1.251       .  A
C988       C1204   1.449       .  S
O989        C996   1.279       .  A
H990       C1003   1.081       .  S
C991       O1005   1.232       .  S
C991       O1006   1.271       .  A
C991       H1016   1.075       .  S
O992       C1015   1.262       .  A
O993      Mg1007   2.176       .  S
O994      Mg1024   2.226       .  S
C995       O1008   1.249       .  A
C995       O1000   1.318       .  A
C995       C1028   1.578       .  S
C996       C1030   1.553       .  S
Mg997      O1004   2.130       .  S
Mg997      O1005   2.143       .  S
Mg997       O998   2.407       .  S
Mg997       O999   2.365       .  S
Mg997      O1026   2.250       .  S
O999       C1003   1.287       .  A
O1000     Mg1007   2.651       .  S
O1001      C1020   1.263   1_545  A
O1002      C1022   1.314       .  A
O1002     Mg1018   2.604       .  S
O1004     Mg1018   2.207       .  S
O1004      C1015   1.236       .  S
O1005     Mg1024   2.183       .  S
O1006     Mg1018   2.305       .  S
Mg1007     O1023   2.445       .  S
O1008     Mg1024   2.261       .  S
H1009      C1014   1.060       .  S
O1010     Mg1018   2.150       .  S
O1010      C1013   1.252       .  S
H1011      C1013   1.081       .  S
H1012      C1015   1.082       .  S
O1017     Mg1024   2.282       .  S
C1020      O1025   1.257   1_565  A
C1020      C1213   1.471       .  S
O1021      C1022   1.284       .  A
C1022      C1134   1.587       .  S
C1027      C1028   1.483       .  D
C1028      C1048   1.545       .  S
C1029      C1030   1.461       .  D
C1030      C2464   1.560       .  S
O1031     Mg1033   2.179       .  S
O1031     Mg1039   2.183       .  S
O1031      C1066   1.237       .  S
C1032      O1045   1.240       .  S
C1032      O1069   1.272       .  A
C1032      H1071   1.080       .  S
Mg1033     O1062   2.146       .  S
Mg1033     O2445   2.165       .  S
Mg1033     O1073   2.242       .  S
Mg1033     O1044   2.270       .  S
O1034     Mg1076   2.021       .  S
O1034     Mg1059   2.176       .  S
O1034      C1055   1.254       .  S
O1035      C1066   1.274       .  A
O1035     Mg1059   2.300       .  S
C1036      O1038   1.314       .  A
C1036      O1050   1.283       .  A
C1036      C1134   1.581       .  S
O1037      C1065   1.276       .  A
O1037     Mg1039   2.281       .  S
O1038     Mg1070   2.548       .  S
Mg1039     O1045   2.165       .  S
Mg1039     O2421   2.263       .  S
Mg1039     O2409   2.386       .  S
C1040      O1078   1.261       .  A
C1040      O1046   1.256       .  A
C1040      C1180   1.455       .  S
O1041      C1048   1.282       .  A
O1041     Mg2407   2.386   1_455  S
H1042      C1055   1.081       .  S
C1043      O1057   1.236       .  S
C1043      O1058   1.274       .  A
C1043      H1068   1.078       .  S
O1044      C1067   1.266       .  A
O1045     Mg1059   2.121       .  S
C1047      O1060   1.264       .  A
C1047      O1052   1.302       .  A
C1048      O2443   1.298       .  A
Mg1049     O1056   2.151       .  S
Mg1049     O1057   2.139       .  S
Mg1049     O1050   2.402       .  S
Mg1049     O1051   2.396       .  S
O1051      C1055   1.294       .  A
O1052     Mg1059   2.664       .  S
O1053      C1072   1.269   1_655  A
O1053     Mg2407   2.263       .  S
O1054      C1074   1.322       .  A
O1054     Mg1070   2.608       .  S
O1056     Mg1070   2.164       .  S
O1056      C1067   1.234       .  S
O1057     Mg1076   2.209       .  S
O1058     Mg1070   2.288       .  S
Mg1059     O1075   2.441       .  S
O1060     Mg1076   2.336       .  S
H1061      C1066   1.067       .  S
O1062     Mg1070   2.114       .  S
O1062      C1065   1.246       .  S
H1063      C1065   1.081       .  S
H1064      C1067   1.081       .  S
O1069     Mg1076   2.310       .  S
C1072      O1077   1.255       .  A
C1072      C1192   1.479       .  S
O1073      C1074   1.268       .  A
C1074      C1130   1.558       .  S
O1075      C2416   1.298       .  A
O1077     Mg2401   2.165   1_455  S
O1079     Mg1081   2.223       .  S
O1079     Mg1087   2.146       .  S
O1079      C1114   1.244       .  S
C1080      O1093   1.237       .  S
C1080      O1117   1.267       .  A
C1080      H1119   1.081       .  S
Mg1081     O1110   2.149       .  S
Mg1081     O2493   2.316       .  S
Mg1081     O1121   2.323       .  S
Mg1081     O1092   2.298       .  S
O1082     Mg1124   2.122       .  S
O1082     Mg1107   2.123       .  S
O1082      C1103   1.247       .  S
O1083      C1114   1.277       .  A
O1083     Mg1107   2.314       .  S
C1084      O1086   1.305       .  A
C1084      O1098   1.262       .  A
C1084      C1132   1.558       .  S
O1085      C1113   1.283       .  A
O1085     Mg1087   2.331       .  S
O1086     Mg1118   2.547       .  S
Mg1087     O1093   2.049       .  S
Mg1087     O2469   2.073       .  S
Mg1087     O2457   2.339       .  S
C1088      O1126   1.247       .  A
C1088      O1094   1.263       .  A
C1088      C1168   1.460       .  S
O1089      C2464   1.276       .  A
O1089     Mg2455   2.339   1_455  S
H1090      C1103   1.081       .  S
C1091      O1105   1.241       .  S
C1091      O1106   1.277       .  A
C1091      H1116   1.078       .  S
O1092      C1115   1.266       .  A
O1093     Mg1107   2.143       .  S
O1094     Mg1124   2.243       .  S
C1095      O1108   1.277       .  A
C1095      O1100   1.311       .  A
C1095      C1128   1.546       .  S
C1096      O2457   1.276       .  A
C1096      O1123   1.289       .  A
C1096      C2398   1.560       .  S
Mg1097     O1104   2.091       .  S
Mg1097     O1105   2.141       .  S
Mg1097     O1098   2.255       .  S
Mg1097     O1099   2.314       .  S
Mg1097     O1126   2.127       .  S
O1099      C1103   1.280       .  A
O1100     Mg1107   2.542       .  S
O1101      C1120   1.245       .  A
O1101     Mg2455   2.073   1_455  S
O1102      C1122   1.310       .  A
O1102     Mg1118   2.579       .  S
O1104     Mg1118   2.142       .  S
O1104      C1115   1.233       .  S
O1105     Mg1124   2.181       .  S
O1106     Mg1118   2.326       .  S
Mg1107     O1123   2.487       .  S
O1108     Mg1124   2.282       .  S
H1109      C1114   1.074       .  S
O1110     Mg1118   2.175       .  S
O1110      C1113   1.248       .  S
H1111      C1113   1.081       .  S
H1112      C1115   1.081       .  S
O1117     Mg1124   2.276       .  S
C1120      O1125   1.268       .  A
C1120      C1156   1.458       .  S
O1121      C1122   1.274       .  A
C1122      C1130   1.558       .  S
O1125     Mg2449   2.316   1_455  S
C1127      C1128   1.468       .  D
C1129      C2498   1.445   1_455  D
C1130      C2497   1.445       .  D
C1131      C1132   1.452       .  D
C1135      C1240   1.447       .  S
C1135      C2508   1.399   1_454  A
C1136      C1137   1.367       .  A
C1137      C1249   1.431       .  S
C1137      C1138   1.379   1_554  A
C1138      C2596   1.453   1_455  S
C1138      C2507   1.392   1_455  A
C1139      C1273   1.449       .  S
C1139      C2506   1.392       .  A
C1140      C1261   1.462       .  S
C1140      C2503   1.399   1_556  A
C1141      C1297   1.416       .  S
C1141      C1142   1.377       .  A
C1141      C1146   1.380       .  A
C1142      C1357   1.464       .  S
C1142      C1143   1.392       .  A
C1143      C1333   1.451       .  S
C1143      C1144   1.390       .  A
C1144      C1312   1.428       .  S
C1144      C1145   1.378       .  A
C1145      C1348   1.467       .  S
C1145      C1146   1.378       .  A
C1146      C1321   1.451       .  S
C1147      C1216   1.450       .  S
C1147      C1148   1.385       .  A
C1147      C1152   1.382       .  A
C1148      C1153   1.464       .  S
C1148      C1149   1.397       .  A
C1149      C1189   1.472       .  S
C1149      C1150   1.395       .  A
C1150      C1201   1.458       .  S
C1150      C1151   1.398       .  A
C1151      C1165   1.462       .  S
C1151      C1152   1.367       .  A
C1152      C1177   1.459       .  S
C1153      C1154   1.376       .  A
C1153      C1158   1.402       .  A
C1154      H1159   1.087       .  S
C1154      C1155   1.375       .  A
C1155      C1156   1.427       .  A
C1155      C1162   1.439       .  S
C1156      C1157   1.399       .  A
C1157      H1160   1.084       .  S
C1157      C1158   1.397       .  A
C1158      C1161   1.433       .  S
C1161      N1163   1.153       .  T
C1162      N1164   1.155       .  T
C1165      C1166   1.407       .  A
C1165      C1170   1.393       .  A
C1166      H1171   1.080       .  S
C1166      C1167   1.391       .  A
C1167      C1168   1.398       .  A
C1167      C1174   1.436       .  S
C1168      C1169   1.406       .  A
C1169      H1172   1.083       .  S
C1169      C1170   1.382       .  A
C1170      C1173   1.429       .  S
C1173      N1175   1.151       .  T
C1174      N1176   1.154       .  T
C1177      C1178   1.381       .  A
C1177      C1182   1.400       .  A
C1178      H1183   1.086       .  S
C1178      C1179   1.375       .  A
C1179      C1180   1.418       .  A
C1179      C1186   1.432       .  S
C1180      C1181   1.407       .  A
C1181      H1184   1.084       .  S
C1181      C1182   1.394       .  A
C1182      C1185   1.443       .  S
C1185      N1187   1.158       .  T
C1186      N1188   1.157       .  T
C1189      C1190   1.396       .  A
C1189      C1194   1.391       .  A
C1190      H1195   1.086       .  S
C1190      C1191   1.393       .  A
C1191      C1192   1.411       .  A
C1191      C1198   1.413       .  S
C1192      C1193   1.404       .  A
C1193      H1196   1.081       .  S
C1193      C1194   1.389       .  A
C1194      C1197   1.421       .  S
C1197      N1199   1.150       .  T
C1198      N1200   1.147       .  T
C1201      C1202   1.376       .  A
C1201      C1206   1.403       .  A
C1202      H1207   1.087       .  S
C1202      C1203   1.372       .  A
C1203      C1204   1.412       .  A
C1203      C1210   1.437       .  S
C1204      C1205   1.402       .  A
C1205      H1208   1.085       .  S
C1205      C1206   1.396       .  A
C1206      C1209   1.437       .  S
C1209      N1211   1.155       .  T
C1210      N1212   1.156       .  T
C1213      C1214   1.395       .  A
C1213      C1218   1.416       .  A
C1214      H1219   1.084       .  S
C1214      C1215   1.394       .  A
C1215      C1216   1.420       .  A
C1215      C1222   1.444       .  S
C1216      C1217   1.386       .  A
C1217      H1220   1.086       .  S
C1217      C1218   1.380       .  A
C1218      C1221   1.424   1_565  S
C1221      N1223   1.150       .  T
C1222      N1224   1.157       .  T
C1225      C1226   1.392   1_556  A
C1225      C2598   1.395       .  A
C1226      H1231   1.079       .  S
C1226      C1227   1.374       .  A
C1227      C1228   1.409   1_554  A
C1227      C1234   1.444       .  S
C1228      C2506   1.453       .  S
C1228      C2597   1.391       .  A
C1229      H1232   1.081   1_655  S
C1229      C2596   1.391       .  A
C1229      C1230   1.379       .  A
C1230      C2593   1.395       .  A
C1230      C1233   1.433       .  S
C1233      N1235   1.153       .  T
C1234      N1236   1.156       .  T
C1237      C1238   1.396   1_554  A
C1237      C2610   1.391       .  A
C1238      H1243   1.072       .  S
C1238      C1239   1.379       .  A
C1239      C1240   1.399   1_556  A
C1239      C1246   1.433       .  S
C1240      C2609   1.396       .  A
C1241      H1244   1.081       .  S
C1241      C2608   1.396       .  A
C1241      C1242   1.372       .  A
C1242      C2605   1.391       .  A
C1242      C1245   1.419       .  S
C1245      N1247   1.152       .  T
C1246      N1248   1.152       .  T
C1249      C1250   1.398       .  A
C1249      C1254   1.398   1_554  A
C1250      H1255   1.081       .  S
C1250      C1251   1.376       .  A
C1251      C1252   1.383       .  A
C1251      C1258   1.431       .  S
C1252      C1253   1.386       .  A
C1253      H1256   1.069   1_554  S
C1253      C1254   1.361   1_554  A
C1254      C1257   1.445       .  S
C1257      N1259   1.155       .  T
C1258      N1260   1.153       .  T
C1261      C1262   1.379       .  A
C1261      C1266   1.397       .  A
C1262      H1267   1.082   1_556  S
C1262      C1263   1.348       .  A
C1263      C1264   1.403       .  A
C1263      C1270   1.437   1_556  S
C1264      C1265   1.406       .  A
C1265      H1268   1.083       .  S
C1265      C1266   1.399       .  A
C1266      C1269   1.436       .  S
C1269      N1271   1.157       .  T
C1270      N1272   1.156       .  T
C1273      C1278   1.383       .  A
C1274      H1279   1.077   1_556  S
C1274      C1275   1.358       .  A
C1275      C1282   1.446   1_556  S
C1276      C1277   1.407       .  A
C1277      H1280   1.083       .  S
C1277      C1278   1.390       .  A
C1278      C1281   1.440       .  S
C1281      N1283   1.156       .  T
C1282      N1284   1.157       .  T
C1285      C1290   1.411   1_565  A
C1286      H1291   1.085       .  S
C1286      C1287   1.402       .  A
C1287      C1294   1.445       .  S
C1288      C1289   1.388       .  A
C1289      H1292   1.077       .  S
C1289      C1290   1.374       .  A
C1290      C1293   1.437   1_554  S
C1293      N1295   1.156       .  T
C1294      N1296   1.157       .  T
C1297      C1298   1.377       .  A
C1297      C1302   1.390       .  A
C1298      H1303   1.092       .  S
C1298      C1299   1.338       .  A
C1299      C1300   1.407       .  A
C1299      C1306   1.427       .  S
C1300      C1301   1.409       .  A
C1301      H1304   1.082       .  S
C1301      C1302   1.385       .  A
C1302      C1305   1.442       .  S
C1305      N1307   1.158       .  T
C1306      N1308   1.157       .  T
C1309      C1310   1.412       .  A
C1309      C1314   1.405       .  A
C1310      H1315   1.083       .  S
C1310      C1311   1.390       .  A
C1311      C1312   1.382       .  A
C1311      C1318   1.436       .  S
C1312      C1313   1.378       .  A
C1313      H1316   1.086       .  S
C1313      C1314   1.339       .  A
C1314      C1317   1.437       .  S
C1317      N1319   1.158       .  T
C1318      N1320   1.156       .  T
C1321      C1322   1.388       .  A
C1321      C1326   1.393       .  A
C1322      H1327   1.084       .  S
C1322      C1323   1.366       .  A
C1323      C1324   1.396       .  A
C1323      C1330   1.421       .  S
C1324      C1325   1.399       .  A
C1325      H1328   1.069       .  S
C1325      C1326   1.378       .  A
C1326      C1329   1.433       .  S
C1329      N1331   1.153       .  T
C1330      N1332   1.147       .  T
C1333      C1334   1.392       .  A
C1333      C1338   1.391       .  A
C1334      H1339   1.084       .  S
C1334      C1335   1.369       .  A
C1335      C1336   1.393       .  A
C1335      C1342   1.425       .  S
C1336      C1337   1.400       .  A
C1337      H1340   1.065       .  S
C1337      C1338   1.383       .  A
C1338      C1341   1.431       .  S
C1341      N1343   1.153       .  T
C1342      N1344   1.154       .  T
C1345      C1346   1.408       .  A
C1345      C1350   1.411       .  A
C1346      H1351   1.079       .  S
C1346      C1347   1.385       .  A
C1347      C1348   1.390       .  A
C1347      C1354   1.442       .  S
C1348      C1349   1.399       .  A
C1349      H1352   1.083       .  S
C1349      C1350   1.379       .  A
C1350      C1353   1.442       .  S
C1353      N1355   1.157       .  T
C1354      N1356   1.157       .  T
C1357      C1358   1.394       .  A
C1357      C1362   1.407       .  A
C1358      H1363   1.084       .  S
C1358      C1359   1.387       .  A
C1359      C1360   1.404       .  A
C1359      C1366   1.449       .  S
C1360      C1361   1.389       .  A
C1361      H1364   1.074       .  S
C1361      C1362   1.383       .  A
C1362      C1365   1.442       .  S
C1365      N1367   1.157       .  T
C1366      N1368   1.156       .  T
O1369     Mg1371   2.181       .  S
O1369     Mg1377   2.253       .  S
O1369      C1404   1.239       .  S
C1370      O1383   1.238       .  S
C1370      O1407   1.261       .  A
C1370      H1409   1.079       .  S
Mg1371     O1400   2.182       .  S
Mg1371     O1411   2.257       .  S
Mg1371     O1382   2.267       .  S
O1372     Mg1414   2.194       .  S
O1372     Mg1397   2.202       .  S
O1372      C1393   1.252       .  S
O1373      C1404   1.262       .  A
O1373     Mg1397   2.253       .  S
C1374      O1376   1.305       .  A
C1374      O1388   1.283       .  A
C1374      C1815   1.566       .  S
O1375      C1403   1.286       .  A
O1375     Mg1377   2.336       .  S
O1376     Mg1408   2.454       .  S
Mg1377     O1383   2.016       .  S
C1378      O1416   1.247       .  A
C1378      O1384   1.254       .  A
C1378      C2029   1.460       .  S
O1379      C1386   1.294       .  A
H1380      C1393   1.081       .  S
C1381      O1395   1.234       .  S
C1381      O1396   1.258       .  A
C1381      H1406   1.072       .  S
O1382      C1405   1.268       .  A
O1383     Mg1397   2.095       .  S
O1384     Mg1414   2.105       .  S
C1385      O1398   1.266       .  A
C1385      O1390   1.303       .  A
C1385      C1417   1.504       .  S
C1386      C1419   1.580       .  S
Mg1387     O1394   2.058       .  S
Mg1387     O1395   2.237       .  S
Mg1387     O1388   2.390       .  S
Mg1387     O1389   2.327       .  S
Mg1387     O1416   2.166       .  S
O1389      C1393   1.284       .  A
O1390     Mg1397   2.454       .  S
O1391      C1410   1.239       .  A
O1392      C1412   1.301       .  A
O1392     Mg1408   2.466       .  S
O1394     Mg1408   2.139       .  S
O1394      C1405   1.237       .  S
O1395     Mg1414   2.174       .  S
O1396     Mg1408   2.247       .  S
Mg1397     O1413   2.503       .  S
O1398     Mg1414   2.218       .  S
H1399      C1404   1.078       .  S
O1400     Mg1408   2.172       .  S
O1400      C1403   1.255       .  S
H1401      C1403   1.081       .  S
H1402      C1405   1.081       .  S
O1407     Mg1414   2.227       .  S
C1410      O1415   1.252       .  A
C1410      C2044   1.442   1_455  S
O1411      C1412   1.265       .  A
C1412      C1813   1.525       .  S
C1417      C2110   1.534       .  S
C1417      C1418   1.442       .  D
C1418      C1535   1.577       .  S
C1418      C1610   1.576       .  S
C1419      C1474   1.584       .  S
C1419      C1420   1.457       .  D
C1420      C1536   1.514       .  S
C1420      C1620   1.548       .  S
O1421     Mg1423   2.174       .  S
O1421     Mg1429   2.187       .  S
O1421      C1456   1.242       .  S
C1422      O1435   1.240       .  S
C1422      O1459   1.272       .  A
C1422      H1461   1.081       .  S
Mg1423     O1452   2.074       .  S
Mg1423     O1434   2.288       .  S
O1424     Mg1466   2.095       .  S
O1424     Mg1449   2.103       .  S
O1424      C1445   1.252       .  S
O1425      C1456   1.276       .  A
O1425     Mg1449   2.326       .  S
C1426      O1428   1.277       .  A
C1426      O2124   1.278       .  A
C1426      C2101   1.534       .  S
O1427      C1455   1.281       .  A
O1427     Mg1429   2.320       .  S
O1428     Mg1460   2.373       .  S
Mg1429     O1435   2.063       .  S
Mg1429     O1443   2.198       .  S
Mg1429     O1431   2.318       .  S
C1430      O1468   1.250       .  A
C1430      O1436   1.247       .  A
C1430      C2008   1.443       .  S
O1431      C1438   1.271       .  A
H1432      C1445   1.081       .  S
C1433      O1447   1.243       .  S
C1433      O1448   1.279       .  A
C1433      H1458   1.082       .  S
O1434      C1457   1.266       .  A
O1435     Mg1449   2.122       .  S
O1436     Mg2150   2.211   1_545  S
C1437      O1450   1.273       .  A
C1437      O1442   1.302       .  A
C1437      C1817   1.547       .  S
C1438      O1465   1.282       .  A
C1438      C1813   1.536       .  S
Mg1439     O1446   2.052       .  S
Mg1439     O1447   2.170       .  S
Mg1439     O2124   2.339       .  S
Mg1439     O1441   2.341       .  S
Mg1439     O2152   2.205       .  S
O1440      C2110   1.278       .  A
O1440     Mg2123   2.339   1_545  S
O1441      C1445   1.285       .  A
O1442     Mg1449   2.506       .  S
O1444     Mg1460   2.601       .  S
O1446     Mg1460   2.112       .  S
O1446      C1457   1.235       .  S
O1447     Mg1466   2.188       .  S
O1448     Mg1460   2.333       .  S
Mg1449     O1465   2.381       .  S
O1450     Mg1466   2.282       .  S
H1451      C1456   1.081       .  S
O1452     Mg1460   2.093       .  S
O1452      C1455   1.248       .  S
H1453      C1455   1.081       .  S
H1454      C1457   1.081       .  S
O1459     Mg1466   2.293       .  S
C1462      O1467   1.250       .  A
C1462      C2020   1.464   1_455  S
O1463      C1464   1.261       .  A
C1464      C1517   1.569       .  S
Mg1466     O2120   2.211       .  S
O1468     Mg2123   2.205   1_545  S
O1469     Mg1471   2.215       .  S
O1469     Mg1477   2.167       .  S
O1469      C1504   1.241       .  S
C1470      O1483   1.233       .  S
C1470      O1507   1.265       .  A
C1470      H1509   1.081       .  S
Mg1471     O1500   2.108       .  S
Mg1471     O1515   2.230       .  S
Mg1471     O1511   2.337       .  S
Mg1471     O1482   2.272       .  S
O1472     Mg1514   2.074       .  S
O1472     Mg1497   2.164       .  S
O1472      C1493   1.259       .  S
O1473      C1504   1.274       .  A
O1473     Mg1497   2.319       .  S
C1474      O2160   1.308       .  A
C1474      O1488   1.288       .  A
O1475      C1503   1.292       .  A
O1475     Mg1477   2.370       .  S
O1476      C2158   1.308       .  A
O1476     Mg1508   2.479       .  S
Mg1477     O1483   2.088       .  S
Mg1477     O1491   2.154       .  S
Mg1477     O1479   2.409       .  S
C1478      O1516   1.249       .  A
C1478      O1484   1.253       .  A
C1478      C1984   1.424   1_565  S
O1479      C1486   1.281       .  A
H1480      C1493   1.081       .  S
C1481      O1495   1.240       .  S
C1481      O1496   1.272       .  A
C1481      H1506   1.077       .  S
O1482      C1505   1.268       .  A
O1483     Mg1497   2.127       .  S
O1484     Mg2198   2.199       .  S
C1485      O1498   1.272       .  A
C1485      O1490   1.323       .  A
C1485      C1817   1.599       .  S
C1486      O1513   1.303       .  A
C1486      C1815   1.567       .  S
Mg1487     O1494   2.081       .  S
Mg1487     O1495   2.173       .  S
Mg1487     O2172   2.440       .  S
Mg1487     O1489   2.393       .  S
Mg1487     O2200   2.180       .  S
O1488     Mg2171   2.440   1_545  S
O1489      C1493   1.296       .  A
O1490     Mg1497   2.678       .  S
O1491      C1510   1.249       .  A
O1492      C1512   1.318       .  A
O1492     Mg1508   2.626       .  S
O1494     Mg1508   2.143       .  S
O1494      C1505   1.237       .  S
O1495     Mg1514   2.209       .  S
O1496     Mg1508   2.308       .  S
Mg1497     O1513   2.462       .  S
O1498     Mg1514   2.354       .  S
H1499      C1504   1.078       .  S
O1500     Mg1508   2.162       .  S
O1500      C1503   1.257       .  S
H1501      C1503   1.081       .  S
H1502      C1505   1.081       .  S
O1507     Mg1514   2.294       .  S
C1510      O1515   1.256       .  A
C1510      C1993   1.414       .  S
O1511      C1512   1.274       .  A
C1512      C1517   1.578       .  S
Mg1514     O2168   2.199       .  S
O1516     Mg2171   2.180       .  S
C1517      C1518   1.488       .  D
C1518      C1572   1.584       .  S
C1518      C1658   1.563       .  S
O1519     Mg1521   2.272   1_554  S
O1519     Mg2211   2.096       .  S
O1519      C1554   1.240       .  S
C1520      O1533   1.235       .  S
C1520      O1557   1.268       .  A
C1520      H1559   1.081       .  S
Mg1521     O1550   2.073       .  S
Mg1521     O1565   2.234       .  S
Mg1521     O1561   2.304       .  S
Mg1521     O1532   2.297       .  S
O1522     Mg1564   2.067   1_565  S
O1522     Mg1547   2.079   1_565  S
O1522      C2227   1.253       .  S
O1523      C1554   1.282       .  A
O1523     Mg2231   2.365       .  S
C1524      O1526   1.300       .  A
C1524      O1538   1.272       .  A
C1524      C1713   1.521       .  S
O1525      C1553   1.290       .  A
O1525     Mg1527   2.381   1_556  S
O1526     Mg1558   2.428       .  S
Mg1527     O2203   2.096   1_545  S
Mg1527     O1533   2.129       .  S
Mg1527     O1541   2.173       .  S
Mg1527     O1529   2.358       .  S
C1528      O1566   1.248   1_554  A
C1528      O2218   1.229       .  A
C1528      C1969   1.429       .  S
O1529      C1536   1.272       .  A
H1530      C1543   1.082       .  S
C1531      O1545   1.241   1_545  S
C1531      O1546   1.280       .  A
C1531      H1556   1.071       .  S
O1532      C1555   1.269       .  A
O1533     Mg1547   2.134       .  S
O1534      C2212   1.229       .  A
O1534     Mg1564   2.288   1_565  S
C1535      O1548   1.272       .  A
C1535      O1540   1.319       .  A
C1536      O1563   1.295       .  A
Mg1537     O1544   2.145       .  S
Mg1537     O2229   2.080       .  S
Mg1537     O1538   2.339       .  S
Mg1537     O1539   2.369   1_556  S
Mg1537     O1566   2.218       .  S
O1539      C1543   1.287       .  A
O1540     Mg1547   2.644       .  S
O1541      C1560   1.247   1_554  A
O1542      C1562   1.320       .  A
O1542     Mg1558   2.630       .  S
C1543      O2206   1.253       .  S
O1544     Mg1558   2.137       .  S
O1544      C1555   1.233       .  S
O1545     Mg2221   2.080       .  S
O1545     Mg1564   2.280   1_566  S
O1546     Mg2242   2.339   1_545  S
Mg1547     O2207   2.365   1_545  S
Mg1547     O1563   2.403       .  S
O1548     Mg1564   2.325       .  S
H1549      C1554   1.078       .  S
O1550     Mg1558   2.103       .  S
O1550      C2237   1.255       .  S
H1551      C1553   1.082       .  S
H1552      C1555   1.079       .  S
C1553      O2234   1.255   1_545  S
O1557     Mg1564   2.290       .  S
Mg1558     O2230   2.339       .  S
C1560      O2249   1.231       .  A
C1560      C1960   1.427       .  S
O1561      C1562   1.268       .  A
C1562      C1811   1.564       .  S
O1565      C2244   1.231       .  A
O1567     Mg1569   2.172   1_556  S
O1567     Mg1575   2.170       .  S
O1567      C1602   1.243       .  S
C1568      O1581   1.238       .  S
C1568      O1605   1.271       .  A
C1568      H1607   1.078       .  S
Mg1569     O1598   2.091       .  S
Mg1569     O1613   2.295       .  S
Mg1569     O1609   2.299       .  S
Mg1569     O1580   2.312       .  S
O1570     Mg1612   2.100       .  S
O1570     Mg1595   2.147       .  S
O1570      C1591   1.253       .  S
O1571      C1602   1.275       .  A
O1571     Mg1595   2.311       .  S
C1572      O1574   1.304       .  A
C1572      O1586   1.284       .  A
O1573      C1601   1.292       .  A
O1573     Mg1575   2.367   1_554  S
O1574     Mg1606   2.527       .  S
Mg1575     O1581   2.057       .  S
Mg1575     O1589   2.221   1_556  S
Mg1575     O1577   2.448       .  S
C1576      O1614   1.254       .  A
C1576      O1582   1.247       .  A
C1576      C1948   1.426       .  S
O1577      C1584   1.290       .  A
H1578      C1591   1.081       .  S
C1579      O1593   1.241       .  S
C1579      O1594   1.277       .  A
C1579      H1604   1.081       .  S
O1580      C1603   1.278       .  A
O1581     Mg1595   2.103       .  S
O1582     Mg1612   2.220       .  S
C1583      O1596   1.274       .  A
C1583      O1588   1.318       .  A
C1583      C1811   1.563       .  S
C1584      O1611   1.304       .  A
C1584      C1711   1.583       .  S
Mg1585     O1592   2.096       .  S
Mg1585     O1593   2.173       .  S
Mg1585     O1586   2.410       .  S
Mg1585     O1587   2.362   1_554  S
Mg1585     O1614   2.216   1_554  S
O1587      C1591   1.288       .  A
O1588     Mg1595   2.633       .  S
O1589      C1608   1.249       .  A
O1590      C1610   1.314       .  A
O1590     Mg1606   2.590       .  S
O1592     Mg1606   2.128       .  S
O1592      C1603   1.244       .  S
O1593     Mg1612   2.207   1_554  S
O1594     Mg1606   2.315       .  S
Mg1595     O1611   2.510       .  S
O1596     Mg1612   2.266       .  S
H1597      C1602   1.081       .  S
O1598     Mg1606   2.172       .  S
O1598      C1601   1.258       .  S
H1599      C1601   1.081       .  S
H1600      C1603   1.081       .  S
O1605     Mg1612   2.279       .  S
C1608      O1613   1.259       .  A
C1608      C1936   1.402       .  S
O1609      C1610   1.281       .  A
O1615     Mg1617   2.190   1_456  S
O1615      C1650   1.242   1_455  S
C1616      O1629   1.243       .  S
C1616      O1653   1.276       .  A
C1616      H1655   1.081       .  S
Mg1617     O1646   2.070   1_655  S
Mg1617     O1661   2.186   1_655  S
Mg1617     O1657   2.251       .  S
Mg1617     O1628   2.300       .  S
O1618     Mg1660   2.089       .  S
O1618     Mg1643   2.127       .  S
O1619      C1650   1.278       .  A
C1620      O1622   1.287       .  A
C1620      O1634   1.280       .  A
O1621      C1649   1.286       .  A
O1621     Mg1623   2.356   1_554  S
O1622     Mg1654   2.432       .  S
Mg1623     O1629   2.050       .  S
Mg1623     O1637   2.230   1_556  S
Mg1623     O1625   2.396       .  S
C1624      O1662   1.246       .  A
C1624      C1909   1.435       .  S
O1625      C1632   1.284       .  A
H1626      C1639   1.081       .  S
C1627      O1641   1.238       .  S
C1627      O1642   1.272       .  A
C1627      H1652   1.080       .  S
O1628      C1651   1.269       .  A
O1629     Mg1643   2.106       .  S
O1630     Mg1660   2.219       .  S
C1631      O1644   1.262       .  A
C1631      O1636   1.308       .  A
C1631      C1711   1.556       .  S
C1632      O1659   1.298       .  A
C1632      C1713   1.561       .  S
Mg1633     O1640   2.037       .  S
Mg1633     O1634   2.377       .  S
Mg1633     O1635   2.363   1_554  S
Mg1633     O1662   2.210   1_554  S
O1635      C1639   1.289       .  A
O1636     Mg1643   2.552       .  S
O1637      C1656   1.251       .  A
O1638      C1658   1.304       .  A
O1638     Mg1654   2.581       .  S
O1640     Mg1654   2.080       .  S
O1640      C1651   1.237       .  S
O1641     Mg1660   2.133   1_554  S
Mg1643     O1659   2.466       .  S
O1644     Mg1660   2.261       .  S
H1645      C1650   1.082       .  S
O1646     Mg1654   2.154   1_455  S
H1647      C1649   1.081       .  S
H1648      C1651   1.081       .  S
O1653     Mg1660   2.304       .  S
C1656      C1921   1.455       .  S
O1657      C1658   1.263       .  A
O1663     Mg1665   2.169       .  S
O1663     Mg1671   2.182       .  S
O1663      C1698   1.231       .  S
C1664      O1677   1.239       .  S
C1664      O1701   1.271       .  A
C1664      H1703   1.081       .  S
Mg1665     O1694   2.166       .  S
Mg1665     O2393   2.149       .  S
Mg1665     O1705   2.373       .  S
Mg1665     O1676   2.248       .  S
O1666     Mg1708   2.101       .  S
O1666     Mg1691   2.145       .  S
O1666      C1687   1.252       .  S
O1667      C1698   1.269       .  A
O1667     Mg1691   2.283       .  S
C1668      O1670   1.301       .  A
C1668      O1682   1.285       .  A
C1668      C1816   1.564       .  S
O1669      C1697   1.284       .  A
O1669     Mg1671   2.318       .  S
O1670     Mg1702   2.449       .  S
Mg1671     O1677   2.163       .  S
Mg1671     O2369   2.273       .  S
Mg1671     O2357   2.352   1_545  S
C1672      O1710   1.263       .  A
C1672      O1678   1.251       .  A
C1672      C1888   1.449       .  S
O1673      C1680   1.279       .  A
O1673     Mg2355   2.352       .  S
H1674      C1687   1.081       .  S
C1675      O1689   1.232       .  S
C1675      O1690   1.271       .  A
C1675      H1700   1.075       .  S
O1676      C1699   1.262       .  A
O1677     Mg1691   2.176       .  S
O1678     Mg1708   2.226       .  S
C1679      O1692   1.249       .  A
C1679      O1684   1.318       .  A
C1679      C1712   1.578       .  S
C1680      O2391   1.307       .  A
C1680      C1714   1.553       .  S
Mg1681     O1688   2.130       .  S
Mg1681     O1689   2.143       .  S
Mg1681     O1682   2.407       .  S
Mg1681     O1683   2.365       .  S
Mg1681     O1710   2.250       .  S
O1683      C1687   1.287       .  A
O1684     Mg1691   2.651       .  S
O1685      C1704   1.263       .  A
O1685     Mg2355   2.273       .  S
O1686      C1706   1.314       .  A
O1686     Mg1702   2.604       .  S
O1688     Mg1702   2.207       .  S
O1688      C1699   1.236       .  S
O1689     Mg1708   2.183       .  S
O1690     Mg1702   2.305       .  S
Mg1691     O1707   2.445   1_545  S
O1692     Mg1708   2.261       .  S
H1693      C1698   1.060   1_565  S
O1694     Mg1702   2.150       .  S
O1694      C1697   1.252       .  S
H1695      C1697   1.081       .  S
H1696      C1699   1.082       .  S
O1701     Mg1708   2.282       .  S
C1704      O1709   1.257       .  A
C1704      C1897   1.471       .  S
O1705      C1706   1.284       .  A
C1706      C1818   1.587       .  S
O1707      C2364   1.307       .  A
O1709     Mg2349   2.149       .  S
C1711      C1712   1.483       .  D
C1712      C1732   1.545       .  S
C1713      C1714   1.461       .  D
O1715     Mg1717   2.179       .  S
O1715     Mg1723   2.183       .  S
O1715      C1750   1.237   1_655  S
C1716      O1729   1.240       .  S
C1716      O1753   1.272       .  A
C1716      H1755   1.080       .  S
Mg1717     O1746   2.146       .  S
Mg1717     O1757   2.242       .  S
Mg1717     O1728   2.270       .  S
O1718     Mg1760   2.021   1_545  S
O1718     Mg1743   2.176       .  S
O1718      C1739   1.254       .  S
O1719      C1750   1.274       .  A
O1719     Mg1743   2.300   1_455  S
C1720      O1722   1.314       .  A
C1720      O1734   1.283       .  A
C1720      C1818   1.581       .  S
O1721      C1749   1.276       .  A
O1721     Mg1723   2.281       .  S
O1722     Mg1754   2.548       .  S
Mg1723     O1729   2.165       .  S
C1724      O1762   1.261       .  A
C1724      O1730   1.256       .  A
C1724      C1864   1.455       .  S
O1725      C1732   1.282       .  A
H1726      C1739   1.081       .  S
C1727      O1741   1.236       .  S
C1727      O1742   1.274       .  A
C1727      H1752   1.078       .  S
O1728      C1751   1.266       .  A
O1729     Mg1743   2.121       .  S
O1730     Mg2444   2.247       .  S
C1731      O1744   1.264       .  A
C1731      O1736   1.302       .  A
C1731      C2496   1.590       .  S
Mg1733     O1740   2.151       .  S
Mg1733     O1741   2.139       .  S
Mg1733     O1734   2.402       .  S
Mg1733     O1735   2.396       .  S
Mg1733     O2446   2.239   1_545  S
O1735      C1739   1.294       .  A
O1736     Mg1743   2.664   1_565  S
O1737      C1756   1.269       .  A
O1738      C1758   1.322       .  A
O1738     Mg1754   2.608       .  S
O1740     Mg1754   2.164       .  S
O1740      C1751   1.234       .  S
O1741     Mg1760   2.209   1_545  S
O1742     Mg1754   2.288       .  S
Mg1743     O1759   2.441   1_655  S
O1744     Mg1760   2.336       .  S
H1745      C1750   1.067       .  S
O1746     Mg1754   2.114       .  S
O1746      C1749   1.246       .  S
H1747      C1749   1.081       .  S
H1748      C1751   1.081       .  S
O1753     Mg1760   2.310   1_545  S
C1756      O1761   1.255       .  A
C1756      C1876   1.479       .  S
O1757      C1758   1.268       .  A
C1758      C1814   1.558       .  S
Mg1760     O2414   2.247       .  S
O1762     Mg2417   2.239       .  S
O1763     Mg1765   2.223       .  S
O1763     Mg1771   2.146       .  S
O1763      C1798   1.244       .  S
C1764      O1777   1.237       .  S
C1764      O1801   1.267       .  A
C1764      H1803   1.081       .  S
Mg1765     O1794   2.149       .  S
Mg1765     O1805   2.323   1_655  S
Mg1765     O1776   2.298       .  S
O1766     Mg1808   2.122       .  S
O1766     Mg1791   2.123       .  S
O1766      C1787   1.247       .  S
O1767      C1798   1.277       .  A
O1767     Mg1791   2.314       .  S
C1768      O1770   1.305       .  A
C1768      O1782   1.262       .  A
C1768      C1816   1.558       .  S
O1769      C1797   1.283       .  A
O1769     Mg1771   2.331       .  S
O1770     Mg1802   2.547       .  S
Mg1771     O1777   2.049       .  S
C1772      O1810   1.247       .  A
C1772      O1778   1.263       .  A
C1772      C1852   1.460       .  S
H1774      C1787   1.081       .  S
C1775      O1789   1.241       .  S
C1775      O1790   1.277       .  A
C1775      H1800   1.078       .  S
O1776      C1799   1.266       .  A
O1777     Mg1791   2.143       .  S
O1778     Mg1808   2.243       .  S
C1779      O1792   1.277       .  A
C1779      O1784   1.311       .  A
C1779      C1812   1.546       .  S
C1780      O1807   1.289   1_455  A
Mg1781     O1788   2.091       .  S
Mg1781     O1789   2.141       .  S
Mg1781     O1782   2.255       .  S
Mg1781     O1783   2.314       .  S
Mg1781     O1810   2.127       .  S
O1783      C1787   1.280       .  A
O1784     Mg1791   2.542       .  S
O1785      C1804   1.245       .  A
O1786      C1806   1.310       .  A
O1786     Mg1802   2.579       .  S
O1788     Mg1802   2.142       .  S
O1788      C1799   1.233       .  S
O1789     Mg1808   2.181       .  S
O1790     Mg1802   2.326       .  S
Mg1791     O1807   2.487       .  S
O1792     Mg1808   2.282       .  S
H1793      C1798   1.074       .  S
O1794     Mg1802   2.174       .  S
O1794      C1797   1.248       .  S
H1795      C1797   1.081       .  S
H1796      C1799   1.081       .  S
O1801     Mg1808   2.276       .  S
C1804      O1809   1.268       .  A
C1804      C1840   1.458       .  S
O1805      C1806   1.274   1_455  A
C1806      C1814   1.558       .  S
C1811      C1812   1.468       .  D
C1812      C2415   1.590       .  S
C1815      C1816   1.452       .  D
C1817      C2502   1.470       .  D
C1818      C2501   1.470   1_545  D
C1819      C1924   1.447       .  S
C1819      C2504   1.409       .  A
C1820      C2656   1.471       .  S
C1820      C2503   1.409   1_545  A
C1820      C1821   1.367       .  A
C1821      C1933   1.431       .  S
C1821      C1822   1.379   1_554  A
C1823      C1957   1.449   1_545  S
C1823      C2508   1.370   1_545  A
C1824      C1945   1.462       .  S
C1824      C2507   1.370       .  A
C1825      C1981   1.416       .  S
C1825      C1826   1.377       .  A
C1825      C1830   1.380       .  A
C1826      C2041   1.464       .  S
C1826      C1827   1.392       .  A
C1827      C2017   1.451       .  S
C1827      C1828   1.390       .  A
C1828      C1996   1.428       .  S
C1828      C1829   1.378       .  A
C1829      C2032   1.467       .  S
C1829      C1830   1.378       .  A
C1830      C2005   1.451       .  S
C1831      C1900   1.450       .  S
C1831      C1832   1.385       .  A
C1831      C1836   1.382       .  A
C1832      C1837   1.464       .  S
C1832      C1833   1.397       .  A
C1833      C1873   1.472       .  S
C1833      C1834   1.395       .  A
C1834      C1885   1.458       .  S
C1834      C1835   1.398       .  A
C1835      C1849   1.462       .  S
C1835      C1836   1.367       .  A
C1836      C1861   1.459       .  S
C1837      C1838   1.376       .  A
C1837      C1842   1.402       .  A
C1838      H1843   1.087       .  S
C1838      C1839   1.375       .  A
C1839      C1840   1.427       .  A
C1839      C1846   1.439       .  S
C1840      C1841   1.399       .  A
C1841      H1844   1.084       .  S
C1841      C1842   1.397       .  A
C1842      C1845   1.433       .  S
C1845      N1847   1.153       .  T
C1846      N1848   1.155       .  T
C1849      C1850   1.407       .  A
C1849      C1854   1.393       .  A
C1850      H1855   1.080       .  S
C1850      C1851   1.391       .  A
C1851      C1852   1.398       .  A
C1851      C1858   1.436       .  S
C1852      C1853   1.406       .  A
C1853      H1856   1.083       .  S
C1853      C1854   1.382       .  A
C1854      C1857   1.429       .  S
C1857      N1859   1.151       .  T
C1858      N1860   1.154       .  T
C1861      C1862   1.381       .  A
C1861      C1866   1.400       .  A
C1862      H1867   1.086       .  S
C1862      C1863   1.375       .  A
C1863      C1864   1.418       .  A
C1863      C1870   1.432       .  S
C1864      C1865   1.407       .  A
C1865      H1868   1.084       .  S
C1865      C1866   1.394       .  A
C1866      C1869   1.443       .  S
C1869      N1871   1.158       .  T
C1870      N1872   1.157       .  T
C1873      C1874   1.396       .  A
C1873      C1878   1.391       .  A
C1874      H1879   1.086       .  S
C1874      C1875   1.393       .  A
C1875      C1876   1.411       .  A
C1875      C1882   1.413       .  S
C1876      C1877   1.404       .  A
C1877      H1880   1.081       .  S
C1877      C1878   1.389       .  A
C1878      C1881   1.421       .  S
C1881      N1883   1.150       .  T
C1882      N1884   1.147       .  T
C1885      C1886   1.376       .  A
C1885      C1890   1.403       .  A
C1886      H1891   1.087       .  S
C1886      C1887   1.372       .  A
C1887      C1888   1.412       .  A
C1887      C1894   1.437       .  S
C1888      C1889   1.402       .  A
C1889      H1892   1.085       .  S
C1889      C1890   1.396       .  A
C1890      C1893   1.437       .  S
C1893      N1895   1.155       .  T
C1894      N1896   1.156       .  T
C1897      C1898   1.395       .  A
C1897      C1902   1.416       .  A
C1898      H1903   1.084       .  S
C1898      C1899   1.394       .  A
C1899      C1900   1.420       .  A
C1899      C1906   1.444       .  S
C1900      C1901   1.386       .  A
C1901      H1904   1.086       .  S
C1901      C1902   1.380       .  A
C1902      C1905   1.424       .  S
C1905      N1907   1.150       .  T
C1906      N1908   1.157       .  T
C1909      C1910   1.392   1_556  A
C1910      H1915   1.079       .  S
C1910      C1911   1.374       .  A
C1911      C1912   1.409   1_554  A
C1911      C1918   1.444       .  S
C1913      H1916   1.081       .  S
C1913      C1914   1.379       .  A
C1914      C1917   1.433       .  S
C1917      N1919   1.153       .  T
C1918      N1920   1.156       .  T
C1921      C1922   1.396   1_554  A
C1922      H1927   1.072       .  S
C1922      C1923   1.379       .  A
C1923      C1924   1.399   1_556  A
C1923      C1930   1.433       .  S
C1925      H1928   1.081   1_455  S
C1925      C1926   1.372       .  A
C1926      C1929   1.419   1_455  S
C1929      N1931   1.152       .  T
C1930      N1932   1.152       .  T
C1933      C1934   1.398       .  A
C1933      C1938   1.398   1_554  A
C1934      H1939   1.081       .  S
C1934      C1935   1.376       .  A
C1935      C1936   1.383       .  A
C1935      C1942   1.431       .  S
C1936      C1937   1.386       .  A
C1937      H1940   1.069   1_554  S
C1937      C1938   1.361   1_554  A
C1938      C1941   1.445       .  S
C1941      N1943   1.155       .  T
C1942      N1944   1.153       .  T
C1945      C1946   1.379       .  A
C1945      C1950   1.397       .  A
C1946      H1951   1.082   1_556  S
C1946      C1947   1.348       .  A
C1947      C1948   1.403       .  A
C1947      C1954   1.437   1_556  S
C1948      C1949   1.406       .  A
C1949      H1952   1.083       .  S
C1949      C1950   1.399       .  A
C1950      C1953   1.436       .  S
C1953      N1955   1.157       .  T
C1954      N1956   1.156       .  T
C1957      C2642   1.393       .  A
C1957      C1962   1.383       .  A
C1958      H1963   1.077   1_556  S
C1958      C2641   1.393       .  A
C1958      C1959   1.358       .  A
C1959      C2644   1.401       .  A
C1959      C1966   1.446   1_556  S
C1960      C2643   1.401   1_545  A
C1960      C1961   1.407       .  A
C1961      H1964   1.083       .  S
C1961      C1962   1.390   1_545  A
C1962      C1965   1.440   1_565  S
C1965      N1967   1.156       .  T
C1966      N1968   1.157       .  T
C1969      C2654   1.405       .  A
C1969      C1974   1.411       .  A
C1970      H1975   1.085       .  S
C1970      C2653   1.405       .  A
C1970      C1971   1.402   1_565  A
C1971      C2656   1.383       .  A
C1971      C1978   1.445   1_545  S
C1972      C2504   1.471       .  S
C1972      C2655   1.383       .  A
C1972      C1973   1.388       .  A
C1973      H1976   1.077       .  S
C1973      C1974   1.374       .  A
C1974      C1977   1.437   1_554  S
C1977      N1979   1.156       .  T
C1978      N1980   1.157       .  T
C1981      C1982   1.377       .  A
C1981      C1986   1.390       .  A
C1982      H1987   1.092       .  S
C1982      C1983   1.338       .  A
C1983      C1984   1.407       .  A
C1983      C1990   1.427       .  S
C1984      C1985   1.409       .  A
C1985      H1988   1.082       .  S
C1985      C1986   1.385       .  A
C1986      C1989   1.442       .  S
C1989      N1991   1.158       .  T
C1990      N1992   1.157       .  T
C1993      C1994   1.412       .  A
C1993      C1998   1.405       .  A
C1994      H1999   1.083       .  S
C1994      C1995   1.390       .  A
C1995      C1996   1.382       .  A
C1995      C2002   1.436       .  S
C1996      C1997   1.378       .  A
C1997      H2000   1.086       .  S
C1997      C1998   1.339       .  A
C1998      C2001   1.437       .  S
C2001      N2003   1.158       .  T
C2002      N2004   1.156       .  T
C2005      C2006   1.388       .  A
C2005      C2010   1.393       .  A
C2006      H2011   1.084       .  S
C2006      C2007   1.366       .  A
C2007      C2008   1.396       .  A
C2007      C2014   1.421       .  S
C2008      C2009   1.399       .  A
C2009      H2012   1.069       .  S
C2009      C2010   1.378       .  A
C2010      C2013   1.433       .  S
C2013      N2015   1.153       .  T
C2014      N2016   1.147       .  T
C2017      C2018   1.392       .  A
C2017      C2022   1.391       .  A
C2018      H2023   1.084       .  S
C2018      C2019   1.369       .  A
C2019      C2020   1.393       .  A
C2019      C2026   1.425       .  S
C2020      C2021   1.400       .  A
C2021      H2024   1.065   1_655  S
C2021      C2022   1.383       .  A
C2022      C2025   1.431       .  S
C2025      N2027   1.153       .  T
C2026      N2028   1.154       .  T
C2029      C2030   1.408       .  A
C2029      C2034   1.411       .  A
C2030      H2035   1.079       .  S
C2030      C2031   1.385       .  A
C2031      C2032   1.390       .  A
C2031      C2038   1.442       .  S
C2032      C2033   1.399       .  A
C2033      H2036   1.083       .  S
C2033      C2034   1.379       .  A
C2034      C2037   1.442       .  S
C2037      N2039   1.157       .  T
C2038      N2040   1.157       .  T
C2041      C2042   1.394       .  A
C2041      C2046   1.407       .  A
C2042      H2047   1.084       .  S
C2042      C2043   1.387       .  A
C2043      C2044   1.404       .  A
C2043      C2050   1.449       .  S
C2044      C2045   1.389       .  A
C2045      H2048   1.074       .  S
C2045      C2046   1.383       .  A
C2046      C2049   1.442       .  S
C2049      N2051   1.157       .  T
C2050      N2052   1.156       .  T
O2053     Mg2055   2.181       .  S
O2053     Mg2061   2.253       .  S
O2053      C2088   1.239       .  S
C2054      O2067   1.238       .  S
C2054      O2091   1.261       .  A
C2054      H2093   1.079       .  S
Mg2055     O2084   2.182       .  S
Mg2055     O2095   2.257       .  S
Mg2055     O2066   2.267       .  S
O2056     Mg2098   2.194       .  S
O2056     Mg2081   2.202       .  S
O2056      C2077   1.252       .  S
O2057      C2088   1.262       .  A
O2057     Mg2081   2.253       .  S
C2058      O2060   1.305       .  A
C2058      O2072   1.283       .  A
C2058      C2499   1.566       .  S
O2059      C2087   1.286       .  A
O2059     Mg2061   2.336       .  S
O2060     Mg2092   2.454       .  S
Mg2061     O2067   2.016       .  S
C2062      O2100   1.247       .  A
C2062      O2068   1.254       .  A
C2062      C2713   1.460       .  S
O2063      C2070   1.294       .  A
H2064      C2077   1.081       .  S
C2065      O2079   1.234       .  S
C2065      O2080   1.258       .  A
C2065      H2090   1.072       .  S
O2066      C2089   1.268       .  A
O2067     Mg2081   2.095       .  S
O2068     Mg2098   2.105       .  S
C2069      O2082   1.266       .  A
C2069      O2074   1.303       .  A
C2069      C2101   1.504       .  S
C2070      C2103   1.580       .  S
Mg2071     O2078   2.058       .  S
Mg2071     O2079   2.237       .  S
Mg2071     O2072   2.390       .  S
Mg2071     O2073   2.327       .  S
Mg2071     O2100   2.166       .  S
O2073      C2077   1.284       .  A
O2074     Mg2081   2.454       .  S
O2075      C2094   1.239       .  A
O2076      C2096   1.301       .  A
O2076     Mg2092   2.466       .  S
O2078     Mg2092   2.139       .  S
O2078      C2089   1.237       .  S
O2079     Mg2098   2.174       .  S
O2080     Mg2092   2.247       .  S
Mg2081     O2097   2.503       .  S
O2082     Mg2098   2.218       .  S
H2083      C2088   1.078       .  S
O2084     Mg2092   2.172       .  S
O2084      C2087   1.255       .  S
H2085      C2087   1.081       .  S
H2086      C2089   1.081       .  S
O2091     Mg2098   2.227       .  S
C2094      O2099   1.252       .  A
C2094      C2728   1.442   1_455  S
O2095      C2096   1.265       .  A
C2096      C2497   1.525       .  S
C2101      C2102   1.442       .  D
C2102      C2219   1.577       .  S
C2102      C2294   1.576       .  S
C2103      C2158   1.584       .  S
C2103      C2104   1.457       .  D
C2104      C2220   1.514       .  S
C2104      C2304   1.548       .  S
O2105     Mg2107   2.174       .  S
O2105     Mg2113   2.187       .  S
O2105      C2140   1.242       .  S
C2106      O2119   1.240       .  S
C2106      O2143   1.272       .  A
C2106      H2145   1.081       .  S
Mg2107     O2136   2.074       .  S
Mg2107     O2118   2.288       .  S
O2108     Mg2150   2.095       .  S
O2108     Mg2133   2.103       .  S
O2108      C2129   1.252       .  S
O2109      C2140   1.276       .  A
O2109     Mg2133   2.326       .  S
C2110      O2112   1.277       .  A
O2111      C2139   1.281       .  A
O2111     Mg2113   2.320       .  S
O2112     Mg2144   2.373   1_545  S
Mg2113     O2119   2.063       .  S
Mg2113     O2127   2.198       .  S
Mg2113     O2115   2.318       .  S
C2114      O2152   1.250       .  A
C2114      O2120   1.247       .  A
C2114      C2692   1.443       .  S
O2115      C2122   1.271       .  A
H2116      C2129   1.081       .  S
C2117      O2131   1.243       .  S
C2117      O2132   1.279       .  A
C2117      H2142   1.082       .  S
O2118      C2141   1.266       .  A
O2119     Mg2133   2.122       .  S
C2121      O2134   1.273       .  A
C2121      O2126   1.302       .  A
C2121      C2501   1.547       .  S
C2122      O2149   1.282       .  A
C2122      C2497   1.536       .  S
Mg2123     O2130   2.052       .  S
Mg2123     O2131   2.170       .  S
Mg2123     O2125   2.341       .  S
O2125      C2129   1.285       .  A
O2126     Mg2133   2.506       .  S
O2128     Mg2144   2.601       .  S
O2130     Mg2144   2.112       .  S
O2130      C2141   1.235       .  S
O2131     Mg2150   2.188       .  S
O2132     Mg2144   2.333       .  S
Mg2133     O2149   2.381       .  S
O2134     Mg2150   2.282       .  S
H2135      C2140   1.081       .  S
O2136     Mg2144   2.093       .  S
O2136      C2139   1.248       .  S
H2137      C2139   1.081       .  S
H2138      C2141   1.081       .  S
O2143     Mg2150   2.293       .  S
C2146      O2151   1.250       .  A
C2146      C2704   1.464   1_455  S
O2147      C2148   1.261       .  A
C2148      C2201   1.569       .  S
O2153     Mg2155   2.215       .  S
O2153     Mg2161   2.167       .  S
O2153      C2188   1.241       .  S
C2154      O2167   1.233       .  S
C2154      O2191   1.265       .  A
C2154      H2193   1.081       .  S
Mg2155     O2184   2.108       .  S
Mg2155     O2199   2.230       .  S
Mg2155     O2195   2.337       .  S
Mg2155     O2166   2.272       .  S
O2156     Mg2198   2.074       .  S
O2156     Mg2181   2.164       .  S
O2156      C2177   1.259       .  S
O2157      C2188   1.274       .  A
O2157     Mg2181   2.319       .  S
C2158      O2172   1.289       .  A
O2159      C2187   1.292       .  A
O2159     Mg2161   2.370       .  S
O2160     Mg2192   2.479   1_545  S
Mg2161     O2167   2.088       .  S
Mg2161     O2175   2.154       .  S
Mg2161     O2163   2.409       .  S
C2162      O2200   1.249       .  A
C2162      O2168   1.253       .  A
C2162      C2668   1.424       .  S
O2163      C2170   1.281       .  A
H2164      C2177   1.081       .  S
C2165      O2179   1.240       .  S
C2165      O2180   1.272       .  A
C2165      H2190   1.077   1_565  S
O2166      C2189   1.268       .  A
O2167     Mg2181   2.127       .  S
C2169      O2182   1.272       .  A
C2169      O2174   1.323       .  A
C2169      C2501   1.599       .  S
C2170      O2197   1.303       .  A
C2170      C2499   1.567       .  S
Mg2171     O2178   2.081       .  S
Mg2171     O2179   2.173       .  S
Mg2171     O2173   2.393       .  S
O2173      C2177   1.296       .  A
O2174     Mg2181   2.678       .  S
O2175      C2194   1.249       .  A
O2176      C2196   1.318       .  A
O2176     Mg2192   2.626       .  S
O2178     Mg2192   2.143       .  S
O2178      C2189   1.237       .  S
O2179     Mg2198   2.209       .  S
O2180     Mg2192   2.308       .  S
Mg2181     O2197   2.462       .  S
O2182     Mg2198   2.354       .  S
H2183      C2188   1.078       .  S
O2184     Mg2192   2.162       .  S
O2184      C2187   1.257       .  S
H2185      C2187   1.081       .  S
H2186      C2189   1.081       .  S
O2191     Mg2198   2.294       .  S
C2194      O2199   1.256       .  A
C2194      C2677   1.414       .  S
O2195      C2196   1.274       .  A
C2196      C2201   1.578       .  S
C2201      C2202   1.488       .  D
C2202      C2256   1.584       .  S
C2202      C2342   1.563       .  S
O2203     Mg2205   2.272   1_554  S
O2203      C2238   1.240       .  S
C2204      O2217   1.235       .  S
C2204      O2241   1.268       .  A
C2204      H2243   1.081       .  S
Mg2205     O2234   2.073       .  S
Mg2205     O2249   2.234   1_565  S
Mg2205     O2245   2.304       .  S
Mg2205     O2216   2.297       .  S
O2206     Mg2248   2.067       .  S
O2206     Mg2231   2.079       .  S
O2207      C2238   1.282       .  A
C2208      O2210   1.300       .  A
C2208      O2222   1.272       .  A
C2208      C2397   1.521       .  S
O2209      C2237   1.290       .  A
O2209     Mg2211   2.381   1_556  S
O2210     Mg2242   2.428       .  S
Mg2211     O2217   2.129       .  S
Mg2211     O2225   2.173       .  S
Mg2211     O2213   2.358       .  S
C2212      O2250   1.248   1_554  A
C2212      C2653   1.429       .  S
O2213      C2220   1.272       .  A
H2214      C2227   1.082       .  S
C2215      O2229   1.241       .  S
C2215      O2230   1.280       .  A
C2215      H2240   1.071       .  S
O2216      C2239   1.269       .  A
O2217     Mg2231   2.134       .  S
O2218     Mg2248   2.288       .  S
C2219      O2232   1.272       .  A
C2219      O2224   1.319       .  A
C2220      O2247   1.295       .  A
Mg2221     O2228   2.144       .  S
Mg2221     O2222   2.339       .  S
Mg2221     O2223   2.369   1_556  S
Mg2221     O2250   2.218       .  S
O2223      C2227   1.287       .  A
O2224     Mg2231   2.644       .  S
O2225      C2244   1.247   1_554  A
O2226      C2246   1.320       .  A
O2226     Mg2242   2.630       .  S
O2228     Mg2242   2.137       .  S
O2228      C2239   1.233       .  S
O2229     Mg2248   2.280   1_556  S
Mg2231     O2247   2.403       .  S
O2232     Mg2248   2.325       .  S
H2233      C2238   1.078       .  S
O2234     Mg2242   2.103       .  S
H2235      C2237   1.082       .  S
H2236      C2239   1.079       .  S
O2241     Mg2248   2.290       .  S
C2244      C2644   1.427       .  S
O2245      C2246   1.268       .  A
C2246      C2495   1.564       .  S
O2251     Mg2253   2.172   1_556  S
O2251     Mg2259   2.170       .  S
O2251      C2286   1.243       .  S
C2252      O2265   1.238       .  S
C2252      O2289   1.271       .  A
C2252      H2291   1.078       .  S
Mg2253     O2282   2.091       .  S
Mg2253     O2297   2.295       .  S
Mg2253     O2293   2.299       .  S
Mg2253     O2264   2.312       .  S
O2254     Mg2296   2.100       .  S
O2254     Mg2279   2.147       .  S
O2254      C2275   1.253       .  S
O2255      C2286   1.275       .  A
O2255     Mg2279   2.311       .  S
C2256      O2258   1.304       .  A
C2256      O2270   1.284       .  A
O2257      C2285   1.292       .  A
O2257     Mg2259   2.367   1_554  S
O2258     Mg2290   2.528       .  S
Mg2259     O2265   2.057       .  S
Mg2259     O2273   2.221   1_556  S
Mg2259     O2261   2.448       .  S
C2260      O2298   1.254       .  A
C2260      O2266   1.247       .  A
C2260      C2632   1.426       .  S
O2261      C2268   1.290       .  A
H2262      C2275   1.081       .  S
C2263      O2277   1.241       .  S
C2263      O2278   1.277       .  A
C2263      H2288   1.081       .  S
O2264      C2287   1.278       .  A
O2265     Mg2279   2.103       .  S
O2266     Mg2296   2.220       .  S
C2267      O2280   1.274       .  A
C2267      O2272   1.318       .  A
C2267      C2495   1.563       .  S
C2268      O2295   1.304       .  A
C2268      C2395   1.583       .  S
Mg2269     O2276   2.096       .  S
Mg2269     O2277   2.173       .  S
Mg2269     O2270   2.410       .  S
Mg2269     O2271   2.362   1_554  S
Mg2269     O2298   2.216   1_554  S
O2271      C2275   1.288       .  A
O2272     Mg2279   2.633       .  S
O2273      C2292   1.249       .  A
O2274      C2294   1.314       .  A
O2274     Mg2290   2.590       .  S
O2276     Mg2290   2.128       .  S
O2276      C2287   1.244       .  S
O2277     Mg2296   2.207   1_554  S
O2278     Mg2290   2.315       .  S
Mg2279     O2295   2.510       .  S
O2280     Mg2296   2.266       .  S
H2281      C2286   1.081       .  S
O2282     Mg2290   2.172       .  S
O2282      C2285   1.258       .  S
H2283      C2285   1.081       .  S
H2284      C2287   1.081       .  S
O2289     Mg2296   2.279       .  S
C2292      O2297   1.259       .  A
C2292      C2620   1.402       .  S
O2293      C2294   1.281       .  A
O2299     Mg2301   2.190   1_456  S
O2299      C2334   1.242   1_455  S
C2300      O2313   1.243       .  S
C2300      O2337   1.276       .  A
C2300      H2339   1.081       .  S
Mg2301     O2330   2.070   1_655  S
Mg2301     O2345   2.186   1_655  S
Mg2301     O2341   2.251       .  S
Mg2301     O2312   2.300       .  S
O2302     Mg2344   2.089       .  S
O2302     Mg2327   2.127       .  S
O2303      C2334   1.278       .  A
C2304      O2306   1.287       .  A
C2304      O2318   1.280       .  A
O2305      C2333   1.286       .  A
O2305     Mg2307   2.356   1_554  S
O2306     Mg2338   2.432       .  S
Mg2307     O2313   2.050       .  S
Mg2307     O2321   2.230   1_556  S
Mg2307     O2309   2.396       .  S
C2308      O2346   1.246       .  A
C2308      C2593   1.435       .  S
O2309      C2316   1.284       .  A
H2310      C2323   1.081       .  S
C2311      O2325   1.238       .  S
C2311      O2326   1.272       .  A
C2311      H2336   1.080       .  S
O2312      C2335   1.269       .  A
O2313     Mg2327   2.106       .  S
O2314     Mg2344   2.219       .  S
C2315      O2328   1.262       .  A
C2315      O2320   1.308       .  A
C2315      C2395   1.556       .  S
C2316      O2343   1.298       .  A
C2316      C2397   1.561       .  S
Mg2317     O2324   2.037       .  S
Mg2317     O2318   2.377       .  S
Mg2317     O2319   2.363   1_554  S
Mg2317     O2346   2.210   1_554  S
O2319      C2323   1.289       .  A
O2320     Mg2327   2.552       .  S
O2321      C2340   1.251       .  A
O2322      C2342   1.304       .  A
O2322     Mg2338   2.581       .  S
O2324     Mg2338   2.080       .  S
O2324      C2335   1.237       .  S
O2325     Mg2344   2.133   1_554  S
Mg2327     O2343   2.466       .  S
O2328     Mg2344   2.261       .  S
H2329      C2334   1.082       .  S
O2330     Mg2338   2.154   1_455  S
H2331      C2333   1.081       .  S
H2332      C2335   1.081       .  S
O2337     Mg2344   2.304       .  S
C2340      C2605   1.455       .  S
O2341      C2342   1.263       .  A
O2347     Mg2349   2.169       .  S
O2347     Mg2355   2.182       .  S
O2347      C2382   1.231       .  S
C2348      O2361   1.239       .  S
C2348      O2385   1.271       .  A
C2348      H2387   1.081       .  S
Mg2349     O2378   2.166       .  S
Mg2349     O2389   2.373       .  S
Mg2349     O2360   2.248       .  S
O2350     Mg2392   2.101       .  S
O2350     Mg2375   2.145       .  S
O2350      C2371   1.252       .  S
O2351      C2382   1.269       .  A
O2351     Mg2375   2.283       .  S
C2352      O2354   1.301       .  A
C2352      O2366   1.285       .  A
C2352      C2500   1.564       .  S
O2353      C2381   1.284       .  A
O2353     Mg2355   2.318       .  S
O2354     Mg2386   2.449       .  S
Mg2355     O2361   2.163       .  S
C2356      O2394   1.263       .  A
C2356      O2362   1.251       .  A
C2356      C2572   1.449       .  S
O2357      C2364   1.279       .  A
H2358      C2371   1.081       .  S
C2359      O2373   1.232       .  S
C2359      O2374   1.271       .  A
C2359      H2384   1.075       .  S
O2360      C2383   1.262       .  A
O2361     Mg2375   2.176       .  S
O2362     Mg2392   2.226       .  S
C2363      O2376   1.249       .  A
C2363      O2368   1.318       .  A
C2363      C2396   1.578       .  S
C2364      C2398   1.553       .  S
Mg2365     O2372   2.130       .  S
Mg2365     O2373   2.143       .  S
Mg2365     O2366   2.407       .  S
Mg2365     O2367   2.365       .  S
Mg2365     O2394   2.250       .  S
O2367      C2371   1.287       .  A
O2368     Mg2375   2.651       .  S
O2369      C2388   1.263   1_545  A
O2370      C2390   1.314       .  A
O2370     Mg2386   2.604       .  S
O2372     Mg2386   2.207       .  S
O2372      C2383   1.236       .  S
O2373     Mg2392   2.183       .  S
O2374     Mg2386   2.305       .  S
Mg2375     O2391   2.445       .  S
O2376     Mg2392   2.261       .  S
H2377      C2382   1.060       .  S
O2378     Mg2386   2.150       .  S
O2378      C2381   1.252       .  S
H2379      C2381   1.081       .  S
H2380      C2383   1.082       .  S
O2385     Mg2392   2.282       .  S
C2388      O2393   1.257   1_565  A
C2388      C2581   1.471       .  S
O2389      C2390   1.284       .  A
C2390      C2502   1.587       .  S
C2395      C2396   1.483       .  D
C2396      C2416   1.545       .  S
C2397      C2398   1.461       .  D
O2399     Mg2401   2.179       .  S
O2399     Mg2407   2.183       .  S
O2399      C2434   1.237   1_655  S
C2400      O2413   1.240       .  S
C2400      O2437   1.272       .  A
C2400      H2439   1.080       .  S
Mg2401     O2430   2.146       .  S
Mg2401     O2441   2.242       .  S
Mg2401     O2412   2.270       .  S
O2402     Mg2444   2.021       .  S
O2402     Mg2427   2.176       .  S
O2402      C2423   1.254       .  S
O2403      C2434   1.274       .  A
O2403     Mg2427   2.300   1_455  S
C2404      O2406   1.314       .  A
C2404      O2418   1.283       .  A
C2404      C2502   1.581       .  S
O2405      C2433   1.276       .  A
O2405     Mg2407   2.281       .  S
O2406     Mg2438   2.548       .  S
Mg2407     O2413   2.165       .  S
C2408      O2446   1.261       .  A
C2408      O2414   1.256       .  A
C2408      C2548   1.455       .  S
O2409      C2416   1.282       .  A
H2410      C2423   1.081       .  S
C2411      O2425   1.236       .  S
C2411      O2426   1.274       .  A
C2411      H2436   1.078       .  S
O2412      C2435   1.266       .  A
O2413     Mg2427   2.121       .  S
C2415      O2428   1.264       .  A
C2415      O2420   1.302       .  A
Mg2417     O2424   2.151       .  S
Mg2417     O2425   2.139       .  S
Mg2417     O2418   2.402       .  S
Mg2417     O2419   2.396       .  S
O2419      C2423   1.294       .  A
O2420     Mg2427   2.664       .  S
O2421      C2440   1.269       .  A
O2422      C2442   1.322       .  A
O2422     Mg2438   2.608       .  S
O2424     Mg2438   2.164       .  S
O2424      C2435   1.234       .  S
O2425     Mg2444   2.209       .  S
O2426     Mg2438   2.288       .  S
Mg2427     O2443   2.441   1_655  S
O2428     Mg2444   2.336       .  S
H2429      C2434   1.067       .  S
O2430     Mg2438   2.114       .  S
O2430      C2433   1.246       .  S
H2431      C2433   1.081       .  S
H2432      C2435   1.081       .  S
O2437     Mg2444   2.310       .  S
C2440      O2445   1.255       .  A
C2440      C2560   1.479       .  S
O2441      C2442   1.268       .  A
C2442      C2498   1.558       .  S
O2447     Mg2449   2.223       .  S
O2447     Mg2455   2.146       .  S
O2447      C2482   1.244       .  S
C2448      O2461   1.237       .  S
C2448      O2485   1.267       .  A
C2448      H2487   1.081       .  S
Mg2449     O2478   2.149       .  S
Mg2449     O2489   2.323   1_655  S
Mg2449     O2460   2.298       .  S
O2450     Mg2492   2.122       .  S
O2450     Mg2475   2.123       .  S
O2450      C2471   1.247       .  S
O2451      C2482   1.277       .  A
O2451     Mg2475   2.314       .  S
C2452      O2454   1.305       .  A
C2452      O2466   1.262       .  A
C2452      C2500   1.558       .  S
O2453      C2481   1.283       .  A
O2453     Mg2455   2.331       .  S
O2454     Mg2486   2.547       .  S
Mg2455     O2461   2.049       .  S
C2456      O2494   1.247       .  A
C2456      O2462   1.263       .  A
C2456      C2536   1.460       .  S
H2458      C2471   1.081       .  S
C2459      O2473   1.241       .  S
C2459      O2474   1.277       .  A
C2459      H2484   1.078       .  S
O2460      C2483   1.266       .  A
O2461     Mg2475   2.143       .  S
O2462     Mg2492   2.243       .  S
C2463      O2476   1.277       .  A
C2463      O2468   1.311       .  A
C2463      C2496   1.546       .  S
C2464      O2491   1.289   1_455  A
Mg2465     O2472   2.091       .  S
Mg2465     O2473   2.141       .  S
Mg2465     O2466   2.255       .  S
Mg2465     O2467   2.314       .  S
Mg2465     O2494   2.127       .  S
O2467      C2471   1.280       .  A
O2468     Mg2475   2.542       .  S
O2469      C2488   1.245       .  A
O2470      C2490   1.310       .  A
O2470     Mg2486   2.579       .  S
O2472     Mg2486   2.142       .  S
O2472      C2483   1.233       .  S
O2473     Mg2492   2.181       .  S
O2474     Mg2486   2.326       .  S
Mg2475     O2491   2.487       .  S
O2476     Mg2492   2.282       .  S
H2477      C2482   1.074       .  S
O2478     Mg2486   2.175       .  S
O2478      C2481   1.248       .  S
H2479      C2481   1.081       .  S
H2480      C2483   1.081       .  S
O2485     Mg2492   2.276       .  S
C2488      O2493   1.268       .  A
C2488      C2524   1.458       .  S
O2489      C2490   1.274   1_455  A
C2490      C2498   1.558       .  S
C2495      C2496   1.468       .  D
C2499      C2500   1.452       .  D
C2503      C2608   1.447       .  S
C2504      C2505   1.367       .  A
C2505      C2617   1.431       .  S
C2505      C2506   1.379   1_554  A
C2507      C2641   1.449       .  S
C2508      C2629   1.462       .  S
C2509      C2665   1.416       .  S
C2509      C2510   1.377       .  A
C2509      C2514   1.380       .  A
C2510      C2725   1.464       .  S
C2510      C2511   1.392       .  A
C2511      C2701   1.451       .  S
C2511      C2512   1.390       .  A
C2512      C2680   1.428       .  S
C2512      C2513   1.378       .  A
C2513      C2716   1.467       .  S
C2513      C2514   1.378       .  A
C2514      C2689   1.451       .  S
C2515      C2584   1.450       .  S
C2515      C2516   1.385       .  A
C2515      C2520   1.382       .  A
C2516      C2521   1.464       .  S
C2516      C2517   1.397       .  A
C2517      C2557   1.472       .  S
C2517      C2518   1.395       .  A
C2518      C2569   1.458       .  S
C2518      C2519   1.398       .  A
C2519      C2533   1.462       .  S
C2519      C2520   1.367       .  A
C2520      C2545   1.459       .  S
C2521      C2522   1.376       .  A
C2521      C2526   1.402       .  A
C2522      H2527   1.087       .  S
C2522      C2523   1.375       .  A
C2523      C2524   1.427       .  A
C2523      C2530   1.439       .  S
C2524      C2525   1.399       .  A
C2525      H2528   1.084       .  S
C2525      C2526   1.397       .  A
C2526      C2529   1.433       .  S
C2529      N2531   1.153       .  T
C2530      N2532   1.155       .  T
C2533      C2534   1.407       .  A
C2533      C2538   1.393       .  A
C2534      H2539   1.080       .  S
C2534      C2535   1.391       .  A
C2535      C2536   1.398       .  A
C2535      C2542   1.436       .  S
C2536      C2537   1.406       .  A
C2537      H2540   1.083       .  S
C2537      C2538   1.382       .  A
C2538      C2541   1.429       .  S
C2541      N2543   1.151       .  T
C2542      N2544   1.154       .  T
C2545      C2546   1.381       .  A
C2545      C2550   1.400       .  A
C2546      H2551   1.086       .  S
C2546      C2547   1.375       .  A
C2547      C2548   1.418       .  A
C2547      C2554   1.432       .  S
C2548      C2549   1.407       .  A
C2549      H2552   1.084       .  S
C2549      C2550   1.394       .  A
C2550      C2553   1.443       .  S
C2553      N2555   1.158       .  T
C2554      N2556   1.157       .  T
C2557      C2558   1.396       .  A
C2557      C2562   1.391       .  A
C2558      H2563   1.086       .  S
C2558      C2559   1.393       .  A
C2559      C2560   1.411       .  A
C2559      C2566   1.413       .  S
C2560      C2561   1.404       .  A
C2561      H2564   1.081       .  S
C2561      C2562   1.389       .  A
C2562      C2565   1.421       .  S
C2565      N2567   1.150       .  T
C2566      N2568   1.147       .  T
C2569      C2570   1.376       .  A
C2569      C2574   1.403       .  A
C2570      H2575   1.087       .  S
C2570      C2571   1.372       .  A
C2571      C2572   1.412       .  A
C2571      C2578   1.437       .  S
C2572      C2573   1.402       .  A
C2573      H2576   1.085       .  S
C2573      C2574   1.396       .  A
C2574      C2577   1.437       .  S
C2577      N2579   1.155       .  T
C2578      N2580   1.156       .  T
C2581      C2582   1.395       .  A
C2581      C2586   1.416       .  A
C2582      H2587   1.084       .  S
C2582      C2583   1.394       .  A
C2583      C2584   1.420       .  A
C2583      C2590   1.444       .  S
C2584      C2585   1.386       .  A
C2585      H2588   1.086       .  S
C2585      C2586   1.380       .  A
C2586      C2589   1.424   1_565  S
C2589      N2591   1.150       .  T
C2590      N2592   1.157       .  T
C2593      C2594   1.392   1_556  A
C2594      H2599   1.079       .  S
C2594      C2595   1.374       .  A
C2595      C2596   1.409   1_554  A
C2595      C2602   1.444       .  S
C2597      H2600   1.081       .  S
C2597      C2598   1.379       .  A
C2598      C2601   1.433       .  S
C2601      N2603   1.153       .  T
C2602      N2604   1.156       .  T
C2605      C2606   1.396   1_554  A
C2606      H2611   1.072       .  S
C2606      C2607   1.379       .  A
C2607      C2608   1.399   1_556  A
C2607      C2614   1.433       .  S
C2609      H2612   1.081   1_455  S
C2609      C2610   1.372       .  A
C2610      C2613   1.419   1_455  S
C2613      N2615   1.152       .  T
C2614      N2616   1.152       .  T
C2617      C2618   1.398       .  A
C2617      C2622   1.398   1_554  A
C2618      H2623   1.081       .  S
C2618      C2619   1.376       .  A
C2619      C2620   1.383       .  A
C2619      C2626   1.431       .  S
C2620      C2621   1.386       .  A
C2621      H2624   1.069   1_554  S
C2621      C2622   1.361   1_554  A
C2622      C2625   1.445       .  S
C2625      N2627   1.155       .  T
C2626      N2628   1.153       .  T
C2629      C2630   1.379       .  A
C2629      C2634   1.397       .  A
C2630      H2635   1.082   1_556  S
C2630      C2631   1.348       .  A
C2631      C2632   1.403       .  A
C2631      C2638   1.437   1_556  S
C2632      C2633   1.406       .  A
C2633      H2636   1.083       .  S
C2633      C2634   1.399       .  A
C2634      C2637   1.436       .  S
C2637      N2639   1.157       .  T
C2638      N2640   1.156       .  T
C2641      C2646   1.383       .  A
C2642      H2647   1.077   1_556  S
C2642      C2643   1.358       .  A
C2643      C2650   1.446   1_556  S
C2644      C2645   1.407       .  A
C2645      H2648   1.083       .  S
C2645      C2646   1.390       .  A
C2646      C2649   1.440       .  S
C2649      N2651   1.156       .  T
C2650      N2652   1.157       .  T
C2653      C2658   1.411   1_565  A
C2654      H2659   1.085       .  S
C2654      C2655   1.402       .  A
C2655      C2662   1.445       .  S
C2656      C2657   1.388       .  A
C2657      H2660   1.077       .  S
C2657      C2658   1.374       .  A
C2658      C2661   1.437   1_554  S
C2661      N2663   1.156       .  T
C2662      N2664   1.157       .  T
C2665      C2666   1.377       .  A
C2665      C2670   1.390       .  A
C2666      H2671   1.092       .  S
C2666      C2667   1.338       .  A
C2667      C2668   1.407       .  A
C2667      C2674   1.427       .  S
C2668      C2669   1.409       .  A
C2669      H2672   1.082       .  S
C2669      C2670   1.385       .  A
C2670      C2673   1.442       .  S
C2673      N2675   1.158       .  T
C2674      N2676   1.157       .  T
C2677      C2678   1.412       .  A
C2677      C2682   1.405       .  A
C2678      H2683   1.083       .  S
C2678      C2679   1.390       .  A
C2679      C2680   1.382       .  A
C2679      C2686   1.436       .  S
C2680      C2681   1.378       .  A
C2681      H2684   1.086       .  S
C2681      C2682   1.339       .  A
C2682      C2685   1.437       .  S
C2685      N2687   1.158       .  T
C2686      N2688   1.156       .  T
C2689      C2690   1.388       .  A
C2689      C2694   1.393       .  A
C2690      H2695   1.084       .  S
C2690      C2691   1.366       .  A
C2691      C2692   1.396       .  A
C2691      C2698   1.421       .  S
C2692      C2693   1.399       .  A
C2693      H2696   1.069       .  S
C2693      C2694   1.378       .  A
C2694      C2697   1.433       .  S
C2697      N2699   1.153       .  T
C2698      N2700   1.147       .  T
C2701      C2702   1.392       .  A
C2701      C2706   1.391       .  A
C2702      H2707   1.084       .  S
C2702      C2703   1.369       .  A
C2703      C2704   1.393       .  A
C2703      C2710   1.425       .  S
C2704      C2705   1.400       .  A
C2705      H2708   1.065   1_655  S
C2705      C2706   1.383       .  A
C2706      C2709   1.431       .  S
C2709      N2711   1.153       .  T
C2710      N2712   1.154       .  T
C2713      C2714   1.408       .  A
C2713      C2718   1.411       .  A
C2714      H2719   1.079       .  S
C2714      C2715   1.385       .  A
C2715      C2716   1.390       .  A
C2715      C2722   1.442       .  S
C2716      C2717   1.399       .  A
C2717      H2720   1.083       .  S
C2717      C2718   1.379       .  A
C2718      C2721   1.442       .  S
C2721      N2723   1.157       .  T
C2722      N2724   1.157       .  T
C2725      C2726   1.394       .  A
C2725      C2730   1.407       .  A
C2726      H2731   1.084       .  S
C2726      C2727   1.387       .  A
C2727      C2728   1.404       .  A
C2727      C2734   1.449       .  S
C2728      C2729   1.389       .  A
C2729      H2732   1.074       .  S
C2729      C2730   1.383       .  A
C2730      C2733   1.442       .  S
C2733      N2735   1.157       .  T
C2734      N2736   1.156       .  T
