geometry optimzed in LAMMPS
_audit_creation_date              2020-11-30 
_audit_creation_method            'lammps2cif' 
_symmetry_space_group_name_H-M    'P1' 
_symmetry_Int_Tables_number       1 
_symmetry_cell_setting            triclinic 
loop_ 
_symmetry_equiv_pos_as_xyz 
  x,y,z 
_cell_length_a                    40.2834797 
_cell_length_b                    38.21447726032112 
_cell_length_c                    30.343111986897824 
_cell_angle_alpha                 79.5597711038581 
_cell_angle_beta                  79.72300677912646 
_cell_angle_gamma                 91.77413897476018 
loop_ 
_atom_site_label 
_atom_site_type_symbol 
_atom_site_fract_x 
_atom_site_fract_y 
_atom_site_fract_z 
_atom_site_charge 
N1          N  0.34374982  0.36042018  0.98914758    -0.03400
C2          C  0.34078849  0.34412629  0.45398987    -0.00900
C3          C  0.36614691  0.35639237  0.41679969    -0.23700
C4          C  0.38560623  0.38149056  0.42932430    -0.23900
C5          C  0.37122788  0.38359117  0.97351797    -0.01000
H6          H  0.36863300  0.34975717  0.38321599     0.12800
H7          H  0.40653379  0.39824596  0.40754719     0.12900
N8          N  0.04167418  0.40306452  0.02123171    -0.03400
C9          C  0.02193584  0.43026292  0.03051588    -0.00900
C10         C  0.02478193  0.43794474  0.07266273    -0.23700
C11         C  0.04661918  0.41524661  0.09002739    -0.23900
C12         C  0.05637616  0.39437663  0.05809309    -0.01000
H13         H  0.51076527  0.45676194  0.09011581     0.12800
H14         H  0.05305331  0.41259303  0.12357383     0.12900
N15         N  0.29187406  0.05990585  0.03616517    -0.03400
C16         C  0.30960966  0.03001777  0.03802003    -0.00900
C17         C  0.29929923  0.00723007  0.07966429    -0.23700
C18         C  0.27566930  0.02380194  0.10517996    -0.23900
C19         C  0.27202578  0.05599914  0.07815090    -0.01000
H20         H  0.31101186  0.48324139  0.09223021     0.12800
H21         H  0.26441536  0.01470757  0.14075936     0.12900
N22         N  0.43681815  0.43834579  0.49701136    -0.36600
N23         N  0.46641130  0.50005686  0.01782613    -0.57100
N24         N  0.40502461  0.03989563  0.01851533    -0.36600
N25         N  0.37357802  0.47470699  0.50246931    -0.57100
C26         C  0.46486994  0.42552031  0.51089454     0.27000
C27         C  0.41293205  0.41120212  0.50771596     0.27000
C28         C  0.42126949  0.05536613  0.04642719     0.27000
C29         C  0.37151689  0.04450960  0.03019896     0.27000
C30         C  0.49428888  0.48376841  0.00216858     0.35600
C31         C  0.47700519  0.03261607  0.02329399     0.35600
C32         C  0.36516613  0.44514636  0.48726177     0.35600
C33         C  0.35041996  0.49841834  0.99283771     0.35600
C34         C  0.45869258  0.38966473  0.53056097    -0.21900
C35         C  0.42593838  0.38041216  0.52758674    -0.21900
C36         C  0.39807355  0.07205973  0.07382758    -0.21900
C37         C  0.36683505  0.06519455  0.06369288    -0.21900
C38         C  0.02269217  0.50660821  0.99627885    -0.22900
C39         C  0.01174425  0.03729743  0.00992557    -0.22900
C40         C  0.33675203  0.45011421  0.46751175    -0.22900
C41         C  0.32708049  0.48370342  0.47179623    -0.22900
C42         C  0.49504426  0.44636229  0.50736378    -0.18300
C43         C  0.38142459  0.41297939  0.49437733    -0.18300
C44         C  0.34495340  0.02804739  0.01412842    -0.18300
C45         C  0.45622535  0.05378564  0.04890176    -0.18300
H46         H  0.47557476  0.37221183  0.54634552     0.14600
H47         H  0.41298021  0.35426079  0.53919932     0.14600
H48         H  0.40293635  0.08691512  0.09942207     0.14600
H49         H  0.34323411  0.07309029  0.08088866     0.14600
H50         H  0.04878194  0.50063999  0.98669687     0.12900
H51         H  0.02791049  0.05997723  0.00997569     0.12900
H52         H  0.32345597  0.43096685  0.45353212     0.12900
H53         H  0.30449304  0.49538166  0.46274989     0.12900
H54         H  0.43491500  0.46347386  0.47770732     0.26200
H55         H  0.41603705  0.02663515  0.99300888     0.26200
N56         N  0.49232248  0.08621880  0.09386303    -0.03400
C57         C  0.49326867  0.08337009  0.13896203    -0.00900
C58         C  0.46871895  0.05809455  0.16456638    -0.23700
C59         C  0.45234317  0.04493664  0.13432484    -0.23900
C60         C  0.46705563  0.06263276  0.09089308    -0.01000
H61         H  0.46328902  0.05002439  0.20132311     0.12800
H62         H  0.43195171  0.02433703  0.14304993     0.12900
N63         N  0.21269378  0.29014397  0.32335021    -0.06100
N64         N  0.21837709  0.30727705  0.35571274    -0.58200
N65         N  0.23440458  0.26567352  0.22074553    -0.05800
N66         N  0.25918204  0.27013087  0.18478386    -0.60300
N67         N  0.21679644  0.29408601  0.21973521    -0.05400
N68         N  0.22924227  0.31829699  0.18282623    -0.58200
N69         N  0.23087042  0.26205458  0.32350614    -0.05000
N70         N  0.24867633  0.25925183  0.35601282    -0.60700
C71         C  0.24085081  0.28743757  0.37594175     0.96100
C72         C  0.25568558  0.30301535  0.16097946     0.95900
N73         N  0.18861828  0.16001364  0.25517003    -0.06300
N74         N  0.18622148  0.13887078  0.22598376    -0.58800
N75         N  0.21992092  0.17965044  0.34246166    -0.04400
N76         N  0.24288493  0.16916526  0.36739224    -0.60000
N77         N  0.19225605  0.15851008  0.35607386    -0.06300
N78         N  0.19611476  0.13295878  0.39026408    -0.59100
N79         N  0.21593178  0.18177260  0.24116651    -0.04000
N80         N  0.23278688  0.17556735  0.20210279    -0.60100
Mn81       Mn  0.22632819  0.22229759  0.28125749     1.18400
C82         C  0.21379040  0.14875523  0.19292332     0.98200
C83         C  0.22780596  0.13998385  0.39741099     0.98800
N84         N  0.13861653  0.30043332  0.23213501    -0.06300
N85         N  0.14229537  0.31654924  0.18908269    -0.62600
N86         N  0.10686890  0.28319795  0.34498279    -0.05100
N87         N  0.08420234  0.29334897  0.37657712    -0.63300
N88         N  0.13408493  0.30514195  0.33451335    -0.05800
N89         N  0.13017820  0.33081122  0.35891011    -0.62900
N90         N  0.11139036  0.27839508  0.24337505    -0.04700
N91         N  0.09614932  0.27912039  0.20834334    -0.63600
Mn92       Mn  0.17575510  0.29909039  0.27738041     1.10700
C93         C  0.11567973  0.30286309  0.17458804     0.99400
C94         C  0.09891070  0.32298392  0.38550443     0.99500
N95         N  0.11299333  0.17216180  0.37443563    -0.05800
N96         N  0.10382227  0.15146590  0.41495353    -0.61200
N97         N  0.09360165  0.19651775  0.26963324    -0.05200
N98         N  0.07208966  0.19315602  0.24209664    -0.57900
N99         N  0.11186462  0.16867985  0.27372819    -0.06500
N100        N  0.10323823  0.14588248  0.24919458    -0.60800
N101        N  0.09401155  0.19961806  0.37081640    -0.05500
N102        N  0.07167137  0.19811387  0.40870917    -0.58000
Mn103      Mn  0.15119223  0.16377072  0.31583946     1.20200
Mn104      Mn  0.10035082  0.23971520  0.30751858     1.10100
Cl105      Cl  0.16342436  0.23124108  0.29580049    -0.85900
C106        C  0.07802703  0.16798258  0.43604380     0.96400
C107        C  0.07852510  0.16144560  0.22926042     0.96200
C108        C  0.05478257  0.10523659  0.21333207    -0.26300
C109        C  0.05754317  0.14268991  0.20371524    -0.14400
C110        C  0.04074926  0.16086477  0.16999260     0.36300
C111        C  0.02078583  0.14110415  0.14796626    -0.25700
C112        C  0.01704804  0.10367793  0.15917456    -0.15300
C113        C  0.03478705  0.08562732  0.19164381     0.37400
N114        N  0.53249504  0.04729463  0.20243708    -0.89200
H115        H  0.06791283  0.09102853  0.23859222     0.18500
H116        H  0.00729566  0.15501326  0.12294069     0.18500
N117        N  0.04456311  0.19909147  0.15739080    -0.88300
H118        H  0.54684940  0.03810288  0.22717289     0.35800
H119        H  0.54321170  0.03812380  0.17298391     0.40900
H120        H  0.03174857  0.20946315  0.18474529     0.40600
H121        H  0.03263024  0.20795824  0.12988020     0.35400
C122        C  0.06992507  0.12708076  0.01074450    -0.26300
C123        C  0.05583242  0.15104246  0.47947516    -0.14400
C124        C  0.02064072  0.15574417  0.48896825     0.36300
C125        C  0.00026518  0.13441421  0.02709537    -0.25700
C126        C  0.01425232  0.10942131  0.05695987    -0.15000
C127        C  0.04956278  0.10650706  0.04973392     0.37400
N128        N  0.06420367  0.08089181  0.08026984    -0.89200
H129        H  0.09685875  0.12369462  0.00408289     0.18500
H130        H  0.47320450  0.13702908  0.03335971     0.18500
N131        N  0.00453266  0.18077921  0.45992145    -0.88300
H132        H  0.09042917  0.08169116  0.06975025     0.35800
H133        H  0.05476586  0.05546367  0.07860200     0.40900
H134        H  0.00867715  0.17466100  0.42730152     0.40600
H135        H  0.51508308  0.20641974  0.45851426     0.35400
C136        C  0.25526165  0.13948339  0.12544129    -0.26300
C137        C  0.22467064  0.12869805  0.15596184    -0.14400
C138        C  0.20646745  0.09725484  0.15284153     0.36300
C139        C  0.22109056  0.07527944  0.12350154    -0.25700
C140        C  0.25325574  0.08434551  0.09656484    -0.15000
C141        C  0.26966704  0.11758516  0.09577403     0.37400
N142        N  0.30209617  0.12809330  0.06750459    -0.89200
H143        H  0.26909351  0.16405306  0.12628476     0.18500
H144        H  0.20808104  0.04996748  0.12371117     0.18500
N145        N  0.17380838  0.08663005  0.18059404    -0.88300
H146        H  0.30021054  0.15250081  0.04631240     0.35800
H147        H  0.31923673  0.13216606  0.08849202     0.40900
H148        H  0.17503861  0.06149650  0.20053960     0.40600
H149        H  0.15665582  0.08422398  0.15903811     0.35400
C150        C  0.27842705  0.12757806  0.43487479    -0.26300
C151        C  0.24526580  0.11712271  0.43092372    -0.14400
C152        C  0.22968187  0.08499009  0.45890142     0.36300
C153        C  0.24687021  0.06539091  0.99080688    -0.25700
C154        C  0.27907599  0.07695524  0.99641414    -0.15000
C155        C  0.29542616  0.10770824  0.46714162     0.37400
N156        N  0.32877577  0.11929979  0.47128657    -0.89200
H157        H  0.29100804  0.15173852  0.41324456     0.18500
H158        H  0.23435698  0.04153432  0.01328456     0.18500
N159        N  0.19627415  0.07257622  0.45580016    -0.88300
H160        H  0.33714627  0.14292876  0.44799337     0.35800
H161        H  0.34506726  0.09996748  0.46222461     0.40900
H162        H  0.17940132  0.08999310  0.46898532     0.40600
H163        H  0.18948398  0.04767717  0.97686988     0.35400
C164        C  0.10906769  0.36633862  0.06687732    -0.26300
C165        C  0.07415784  0.36230473  0.06940738    -0.14400
C166        C  0.05541217  0.33253809  0.09784917     0.36300
C167        C  0.07090550  0.31003784  0.12844649    -0.25700
C168        C  0.10449742  0.31793475  0.13188372    -0.15000
C169        C  0.12467373  0.34407015  0.09800782     0.37400
N170        N  0.16017760  0.34956493  0.09741302    -0.89200
H171        H  0.12330642  0.38925919  0.04436899     0.18500
H172        H  0.05543425  0.28896714  0.15288952     0.18500
N173        N  0.01971702  0.32785209  0.09976424    -0.88300
H174        H  0.17103900  0.37023965  0.07068238     0.35800
H175        H  0.17151454  0.32640368  0.09052048     0.40900
H176        H  0.00736683  0.32874316  0.13289505     0.40600
H177        H  0.01451138  0.30249422  0.09330010     0.35400
C178        C  0.03693481  0.35358716  0.48091140    -0.26300
C179        C  0.05056803  0.38788916  0.48058375    -0.14400
C180        C  0.07994947  0.40125033  0.44763700     0.36300
C181        C  0.09482020  0.38005917  0.41676692    -0.25700
C182        C  0.08165569  0.34525726  0.41799220    -0.15000
C183        C  0.05212656  0.33206962  0.45069546     0.37400
N184        N  0.03843561  0.29616746  0.45490019    -0.89200
H185        H  0.01574036  0.34232258  0.50737055     0.18500
H186        H  0.11743844  0.39071779  0.39228252     0.18500
N187        N  0.09656226  0.43536850  0.44628421    -0.88300
H188        H  0.01640565  0.29088119  0.47978231     0.35800
H189        H  0.05606136  0.27897920  0.46652508     0.40900
H190        H  0.08352474  0.44851404  0.47067136     0.40600
H191        H  0.09593651  0.45117636  0.41452881     0.35400
C192        C  0.30794406  0.30237425  0.10255384    -0.26300
C193        C  0.27963465  0.32048184  0.11819110    -0.14400
C194        C  0.27495851  0.35427882  0.09241738     0.36300
C195        C  0.29775230  0.36817027  0.05131283    -0.25700
C196        C  0.32514471  0.34926501  0.03524324    -0.15000
C197        C  0.33068833  0.31627381  0.06191602     0.37400
N198        N  0.35867320  0.29567418  0.04826756    -0.89200
H199        H  0.31241333  0.27674120  0.12179326     0.18500
H200        H  0.29326909  0.39312406  0.03059481     0.18500
N201        N  0.24678072  0.37413494  0.10723374    -0.88300
H202        H  0.37324152  0.29289156  0.07380838     0.35800
H203        H  0.37459712  0.30915902  0.01871675     0.40900
H204        H  0.22492394  0.35990122  0.10459229     0.40600
H205        H  0.24763803  0.39876161  0.08525595     0.35400
C206        C  0.28722875  0.27718942  0.41874055    -0.26300
C207        C  0.26076804  0.29835816  0.40800417    -0.14400
C208        C  0.25690199  0.33072150  0.42375385     0.36300
C209        C  0.28170797  0.34312998  0.44518886    -0.25700
C210        C  0.31044009  0.32402695  0.44995795    -0.15000
C211        C  0.31249770  0.28991138  0.43867857     0.37400
N212        N  0.34086966  0.26861008  0.44392685    -0.89200
H213        H  0.28997405  0.25157212  0.40841063     0.18500
H214        H  0.28018811  0.36939727  0.45391647     0.18500
N215        N  0.22908883  0.35194034  0.41592195    -0.88300
H216        H  0.33168982  0.24469943  0.96636847     0.35800
H217        H  0.35807532  0.28063348  0.95935381     0.40900
H218        H  0.23881950  0.37685468  0.39672437     0.40600
H219        H  0.21607107  0.35583936  0.44751093     0.35400
N220        N  0.34376691  0.36043307  0.48913030    -0.03400
C221        C  0.34076475  0.34404793  0.95406278    -0.00900
C222        C  0.36608871  0.35630593  0.91682631    -0.23700
C223        C  0.38552891  0.38147056  0.92925434    -0.23900
C224        C  0.37128005  0.38356495  0.47359636    -0.01000
H225        H  0.36855605  0.34962465  0.88326879     0.12800
H226        H  0.40643306  0.39822707  0.90742380     0.12900
N227        N  0.04167614  0.40312151  0.52124582    -0.03400
C228        C  0.02199186  0.43036867  0.53049782    -0.00900
C229        C  0.02492109  0.43810949  0.57258986    -0.23700
C230        C  0.04674955  0.41539626  0.58995195    -0.23900
C231        C  0.05642099  0.39446014  0.55807086    -0.01000
H232        H  0.51095371  0.45696731  0.59002413     0.12800
H233        H  0.05322623  0.41277404  0.62347150     0.12900
N234        N  0.29177653  0.05986894  0.53619736    -0.03400
C235        C  0.30951691  0.02998232  0.53817297    -0.00900
C236        C  0.29918527  0.00726400  0.57986587    -0.23700
C237        C  0.27552895  0.02387759  0.60528359    -0.23900
C238        C  0.27189408  0.05602890  0.57814905    -0.01000
H239        H  0.31089572  0.48329925  0.59252349     0.12800
H240        H  0.26425604  0.01484943  0.64086868     0.12900
N241        N  0.43682856  0.43833356  0.99688443    -0.36600
N242        N  0.46637574  0.50010089  0.51788759    -0.57100
N243        N  0.40494268  0.03988183  0.51862061    -0.36600
N244        N  0.37363937  0.47476905  0.00227067    -0.57100
C245        C  0.46486455  0.42547800  0.01077930     0.27000
C246        C  0.41292156  0.41121009  0.00757938     0.27000
C247        C  0.42120470  0.05537990  0.54649199     0.27000
C248        C  0.37143142  0.04445400  0.53036331     0.27000
C249        C  0.49425850  0.48383487  0.50219889     0.35600
C250        C  0.47694778  0.03269869  0.52324478     0.35600
C251        C  0.36520169  0.44521096  0.98707659     0.35600
C252        C  0.35032813  0.49832749  0.49306509     0.35600
C253        C  0.45866082  0.38962053  0.03042789    -0.21900
C254        C  0.42590187  0.38040165  0.02744688    -0.21900
C255        C  0.39800877  0.07203821  0.57394019    -0.21900
C256        C  0.36675706  0.06513090  0.56386598    -0.21900
C257        C  0.02264426  0.50672069  0.49618802    -0.22900
C258        C  0.01167783  0.03742749  0.50977040    -0.22900
C259        C  0.33680226  0.45020748  0.96730187    -0.22900
C260        C  0.32716914  0.48381581  0.97155277    -0.22900
C261        C  0.49504336  0.44629408  0.00730620    -0.18300
C262        C  0.38141386  0.41301885  0.99424483    -0.18300
C263        C  0.34486413  0.02797534  0.51431843    -0.18300
C264        C  0.45617838  0.05385238  0.54888705    -0.18300
H265        H  0.47552773  0.37214577  0.04621226     0.14600
H266        H  0.41292330  0.35426033  0.03905525     0.14600
H267        H  0.40288329  0.08690100  0.59952211     0.14600
H268        H  0.34315476  0.07299534  0.58110143     0.14600
H269        H  0.04873656  0.50078338  0.48654145     0.12900
H270        H  0.02782335  0.06015683  0.50969744     0.12900
H271        H  0.32348446  0.43106337  0.95334279     0.12900
H272        H  0.30459289  0.49551464  0.96249683     0.12900
H273        H  0.43494787  0.46347385  0.97758993     0.26200
H274        H  0.41594900  0.02663327  0.49309513     0.26200
N275        N  0.49232217  0.08623401  0.59384826    -0.03400
C276        C  0.49330715  0.08333189  0.63894275    -0.00900
C277        C  0.46877119  0.05804079  0.66454165    -0.23700
C278        C  0.45235998  0.04492976  0.63430058    -0.23900
C279        C  0.46703794  0.06266907  0.59087497    -0.01000
H280        H  0.46337124  0.04993278  0.70129400     0.12800
H281        H  0.43197078  0.02432779  0.64302078     0.12900
N282        N  0.21271792  0.29013898  0.82331561    -0.06100
N283        N  0.21840543  0.30727285  0.85567761    -0.58200
N284        N  0.23442528  0.26564916  0.72071921    -0.05800
N285        N  0.25920002  0.27010224  0.68475483    -0.60300
N286        N  0.21681013  0.29405634  0.71970165    -0.05400
N287        N  0.22924731  0.31826001  0.68278308    -0.58200
N288        N  0.23090316  0.26205605  0.82346254    -0.05000
N289        N  0.24871887  0.25925814  0.85595733    -0.60700
C290        C  0.24089010  0.28743831  0.87589334     0.96100
C291        C  0.25569164  0.30297824  0.66093905     0.95900
N292        N  0.18864729  0.15999669  0.75517363    -0.06300
N293        N  0.18621847  0.13889307  0.72595203    -0.58800
N294        N  0.21995468  0.17966196  0.84245394    -0.04400
N295        N  0.24291361  0.16920794  0.86740592    -0.60000
N296        N  0.19229285  0.15851843  0.85607973    -0.06300
N297        N  0.19614850  0.13299515  0.89030191    -0.59100
N298        N  0.21595479  0.18176287  0.74115824    -0.04000
N299        N  0.23277338  0.17560233  0.70205021    -0.60100
Mn300      Mn  0.22635591  0.22228936  0.78123675     1.18400
C301        C  0.21376013  0.14881022  0.69285709     0.98200
C302        C  0.22783407  0.14004220  0.89745321     0.98800
N303        N  0.13862212  0.30038553  0.73210225    -0.06300
N304        N  0.14227809  0.31651904  0.68905993    -0.62600
N305        N  0.10687867  0.28316964  0.84494019    -0.05100
N306        N  0.08420085  0.29333183  0.87651082    -0.63300
N307        N  0.13409061  0.30512048  0.83446670    -0.05800
N308        N  0.13016890  0.33080558  0.85883756    -0.62900
N309        N  0.11139851  0.27834332  0.74335014    -0.04700
N310        N  0.09613474  0.27908510  0.70833564    -0.63600
Mn311      Mn  0.17576748  0.29906463  0.77734441     1.10700
C312        C  0.11565064  0.30284056  0.67458054     0.99400
C313        C  0.09889737  0.32297972  0.88542076     0.99500
N314        N  0.11301843  0.17212807  0.87443631    -0.05800
N315        N  0.10382668  0.15141805  0.91494136    -0.61200
N316        N  0.09363230  0.19645928  0.76963471    -0.05200
N317        N  0.07211942  0.19308503  0.74210492    -0.57900
N318        N  0.11189696  0.16862348  0.77374234    -0.06500
N319        N  0.10327022  0.14581403  0.74922380    -0.60800
N320        N  0.09402911  0.19957805  0.87080559    -0.05500
N321        N  0.07166158  0.19805483  0.90867696    -0.58000
Mn322      Mn  0.15122719  0.16374408  0.81584811     1.20200
Mn323      Mn  0.10037037  0.23967029  0.80749962     1.10100
Cl324      Cl  0.16344729  0.23121572  0.79578667    -0.85900
C325        C  0.07801161  0.16792078  0.93601095     0.96400
C326        C  0.07855476  0.16136907  0.72928636     0.96200
C327        C  0.05486416  0.10516272  0.71327520    -0.26300
C328        C  0.05758648  0.14261776  0.70372047    -0.14400
C329        C  0.04075884  0.16080386  0.67004383     0.36300
C330        C  0.02080083  0.14105266  0.64800320    -0.25700
C331        C  0.01709682  0.10362463  0.65915460    -0.15300
C332        C  0.03486937  0.08556212  0.69157451     0.37400
N333        N  0.53260758  0.04722831  0.70230850    -0.89200
H334        H  0.06802039  0.09094674  0.73849889     0.18500
H335        H  0.00728258  0.15497016  0.62301753     0.18500
N336        N  0.04452690  0.19903541  0.65750748    -0.88300
H337        H  0.54698455  0.03802682  0.72701454     0.35800
H338        H  0.54331561  0.03809253  0.67282680     0.40900
H339        H  0.03169689  0.20936282  0.68489155     0.40600
H340        H  0.03258265  0.20791291  0.63001209     0.35400
C341        C  0.06993187  0.12708216  0.51073322    -0.26300
C342        C  0.05581301  0.15098167  0.97943704    -0.14400
C343        C  0.02061161  0.15563620  0.98888682     0.36300
C344        C  0.00028601  0.13450242  0.52715505    -0.25700
C345        C  0.01425785  0.10944397  0.55695777    -0.15000
C346        C  0.04956276  0.10648596  0.54969893     0.37400
N347        N  0.06418762  0.08080408  0.58017240    -0.89200
H348        H  0.09685853  0.12366086  0.50404398     0.18500
H349        H  0.47323133  0.13715453  0.53344998     0.18500
N350        N  0.00448717  0.18059951  0.95977270    -0.88300
H351        H  0.09040963  0.08157958  0.56963787     0.35800
H352        H  0.05471936  0.05540259  0.57844349     0.40900
H353        H  0.00867696  0.17444313  0.92717482     0.40600
H354        H  0.51499076  0.20626735  0.95833003     0.35400
C355        C  0.25522449  0.13953509  0.62537560    -0.26300
C356        C  0.22460153  0.12879612  0.65584261    -0.14400
C357        C  0.20633723  0.09741542  0.65264164     0.36300
C358        C  0.22093828  0.07542803  0.62330451    -0.25700
C359        C  0.25314183  0.08442537  0.59645555    -0.15000
C360        C  0.26961078  0.11762351  0.59571679     0.37400
N361        N  0.30208201  0.12806130  0.56752967    -0.89200
H362        H  0.26910247  0.16406219  0.62627638     0.18500
H363        H  0.20788738  0.05014845  0.62347022     0.18500
N364        N  0.17363957  0.08686010  0.68031874    -0.88300
H365        H  0.30027312  0.15249002  0.54633228     0.35800
H366        H  0.31919541  0.13207345  0.58857445     0.40900
H367        H  0.17479304  0.06170323  0.70025254     0.40600
H368        H  0.15651145  0.08452728  0.65870989     0.35400
C369        C  0.27846780  0.12764691  0.93489310    -0.26300
C370        C  0.24529363  0.11720317  0.93098293    -0.14400
C371        C  0.22969662  0.08509647  0.95900948     0.36300
C372        C  0.24684353  0.06528716  0.49071897    -0.25700
C373        C  0.27902645  0.07687491  0.49638454    -0.15000
C374        C  0.29547835  0.10777695  0.96714579     0.37400
N375        N  0.32884336  0.11935556  0.97124490    -0.89200
H376        H  0.29105387  0.15179287  0.91323300     0.18500
H377        H  0.23433230  0.04142087  0.51317679     0.18500
N378        N  0.19626505  0.07271003  0.95597351    -0.88300
H379        H  0.33720911  0.14298047  0.94794444     0.35800
H380        H  0.34512038  0.10001550  0.96216203     0.40900
H381        H  0.17942514  0.09016087  0.96914492     0.40600
H382        H  0.18950818  0.04752566  0.47665557     0.35400
C383        C  0.10906452  0.36631907  0.56685849    -0.26300
C384        C  0.07414806  0.36235350  0.56942010    -0.14400
C385        C  0.05536346  0.33262560  0.59789611     0.36300
C386        C  0.07083340  0.31010472  0.62850428    -0.25700
C387        C  0.10444790  0.31793522  0.63189827    -0.15000
C388        C  0.12464974  0.34402456  0.59798729     0.37400
N389        N  0.16016631  0.34944595  0.59735094    -0.89200
H390        H  0.12333361  0.38920732  0.54431987     0.18500
H391        H  0.05533858  0.28906923  0.65297658     0.18500
N392        N  0.01966254  0.32799814  0.59982086    -0.88300
H393        H  0.17104893  0.37009213  0.57059445     0.35800
H394        H  0.17144750  0.32625210  0.59047274     0.40900
H395        H  0.00732511  0.32892174  0.63294877     0.40600
H396        H  0.01441382  0.30264318  0.59338313     0.35400
C397        C  0.03695739  0.35351781  0.98091215    -0.26300
C398        C  0.05056434  0.38783306  0.98056844    -0.14400
C399        C  0.07990335  0.40123577  0.94756639     0.36300
C400        C  0.09477233  0.38006129  0.91667213    -0.25700
C401        C  0.08164005  0.34524209  0.91792019    -0.15000
C402        C  0.05213956  0.33202309  0.95066144     0.37400
N403        N  0.03846663  0.29611469  0.95486217    -0.89200
H404        H  0.01578628  0.34223221  0.00739761     0.18500
H405        H  0.11736246  0.39074761  0.89214830     0.18500
N406        N  0.09647170  0.43538473  0.94616879    -0.88300
H407        H  0.01645164  0.29080752  0.97977087     0.35800
H408        H  0.05611275  0.27893682  0.96644982     0.40900
H409        H  0.08344462  0.44850605  0.97059136     0.40600
H410        H  0.09577575  0.45118244  0.91443079     0.35400
C411        C  0.30796706  0.30236551  0.60252798    -0.26300
C412        C  0.27962546  0.32043931  0.61813824    -0.14400
C413        C  0.27489642  0.35419985  0.59232236     0.36300
C414        C  0.29768701  0.36810311  0.55122440    -0.25700
C415        C  0.32512711  0.34924456  0.53519802    -0.15000
C416        C  0.33070504  0.31627434  0.56188692     0.37400
N417        N  0.35871635  0.29570383  0.54825218    -0.89200
H418        H  0.31246702  0.27675385  0.62179182     0.18500
H419        H  0.29317113  0.39303271  0.53048420     0.18500
N420        N  0.24666629  0.37400411  0.60709012    -0.88300
H421        H  0.37328801  0.29296101  0.57378639     0.35800
H422        H  0.37462599  0.30918872  0.51868614     0.40900
H423        H  0.22484608  0.35970237  0.60446795     0.40600
H424        H  0.24747657  0.39860609  0.58507224     0.35400
C425        C  0.28722763  0.27714168  0.91875813    -0.26300
C426        C  0.26078045  0.29832690  0.90800622    -0.14400
C427        C  0.25690278  0.33067095  0.92379986     0.36300
C428        C  0.28167965  0.34304061  0.94531226    -0.25700
C429        C  0.31040970  0.32393351  0.95008173    -0.15000
C430        C  0.31247932  0.28983636  0.93874778     0.37400
N431        N  0.34085681  0.26853782  0.94397000    -0.89200
H432        H  0.28998374  0.25153919  0.90839026     0.18500
H433        H  0.28015484  0.36929835  0.95406856     0.18500
N434        N  0.22911671  0.35191817  0.91592134    -0.88300
H435        H  0.33169905  0.24479126  0.46637336     0.35800
H436        H  0.35810224  0.28072451  0.45926656     0.40900
H437        H  0.23887743  0.37683635  0.89676292     0.40600
H438        H  0.21606558  0.35580302  0.94749793     0.35400
N439        N  0.34374983  0.86042035  0.98914759    -0.03400
C440        C  0.34078849  0.84412614  0.45398954    -0.00900
C441        C  0.36614667  0.85639212  0.41679907    -0.23700
C442        C  0.38560578  0.88149017  0.42932429    -0.23900
C443        C  0.37122804  0.88359133  0.97351772    -0.01000
H444        H  0.36863304  0.84975693  0.38321527     0.12800
H445        H  0.40653329  0.89824565  0.40754740     0.12900
N446        N  0.04167415  0.90306453  0.02123176    -0.03400
C447        C  0.02193585  0.93026295  0.03051590    -0.00900
C448        C  0.02478199  0.93794476  0.07266277    -0.23700
C449        C  0.04661915  0.91524664  0.09002769    -0.23900
C450        C  0.05637605  0.89437659  0.05809329    -0.01000
H451        H  0.51076539  0.95676206  0.09011563     0.12800
H452        H  0.05305291  0.91259298  0.12357440     0.12900
N453        N  0.29187410  0.55990592  0.03616507    -0.03400
C454        C  0.30960952  0.53001775  0.03801988    -0.00900
C455        C  0.29929916  0.50723022  0.07966431    -0.23700
C456        C  0.27566926  0.52380204  0.10517996    -0.23900
C457        C  0.27202579  0.55599919  0.07815081    -0.01000
H458        H  0.31101188  0.98324114  0.09222999     0.12800
H459        H  0.26441548  0.51470770  0.14075943     0.12900
N460        N  0.43681818  0.93834569  0.49701139    -0.36600
N461        N  0.46641141  0.00005672  0.01782604    -0.57100
N462        N  0.40502410  0.53989613  0.01851627    -0.36600
N463        N  0.37357807  0.97470704  0.50246941    -0.57100
C464        C  0.46487001  0.92552023  0.51089461     0.27000
C465        C  0.41293214  0.91120202  0.50771597     0.27000
C466        C  0.42126936  0.55536620  0.04642726     0.27000
C467        C  0.37151672  0.54450973  0.03019917     0.27000
C468        C  0.49428912  0.98376838  0.00216848     0.35600
C469        C  0.47700514  0.53261634  0.02329388     0.35600
C470        C  0.36516624  0.94514642  0.48726186     0.35600
C471        C  0.35041967  0.99841832  0.99283758     0.35600
C472        C  0.45869286  0.88966463  0.53056109    -0.21900
C473        C  0.42593864  0.88041206  0.52758683    -0.21900
C474        C  0.39807333  0.57205998  0.07382802    -0.21900
C475        C  0.36683462  0.56519485  0.06369350    -0.21900
C476        C  0.02269258  0.00660822  0.99627889    -0.22900
C477        C  0.01174409  0.53729747  0.00992556    -0.22900
C478        C  0.33675222  0.95011433  0.46751185    -0.22900
C479        C  0.32708055  0.98370350  0.47179628    -0.22900
C480        C  0.49504430  0.94636222  0.50736383    -0.18300
C481        C  0.38142466  0.91297935  0.49437731    -0.18300
C482        C  0.34495324  0.52804747  0.01412862    -0.18300
C483        C  0.45622525  0.55378576  0.04890206    -0.18300
H484        H  0.47557518  0.87221181  0.54634553     0.14600
H485        H  0.41298050  0.85426069  0.53919973     0.14600
H486        H  0.40293674  0.58691529  0.09942224     0.14600
H487        H  0.34323355  0.57309045  0.08088909     0.14600
H488        H  0.04878242  0.00064011  0.98669713     0.12900
H489        H  0.02791055  0.55997731  0.00997501     0.12900
H490        H  0.32345632  0.93096695  0.45353210     0.12900
H491        H  0.30449303  0.99538158  0.46274990     0.12900
H492        H  0.43491494  0.96347381  0.47770730     0.26200
H493        H  0.41603770  0.52663389  0.99300727     0.26200
N494        N  0.49232262  0.58621869  0.09386301    -0.03400
C495        C  0.49326870  0.58337015  0.13896192    -0.00900
C496        C  0.46871905  0.55809469  0.16456628    -0.23700
C497        C  0.45234317  0.54493665  0.13432492    -0.23900
C498        C  0.46705564  0.56263273  0.09089316    -0.01000
H499        H  0.46328934  0.55002491  0.20132305     0.12800
H500        H  0.43195173  0.52433699  0.14305004     0.12900
N501        N  0.21269384  0.79014403  0.32335006    -0.06100
N502        N  0.21837713  0.80727709  0.35571263    -0.58200
N503        N  0.23440457  0.76567349  0.22074531    -0.05800
N504        N  0.25918208  0.77013092  0.18478367    -0.60300
N505        N  0.21679649  0.79408600  0.21973518    -0.05400
N506        N  0.22924219  0.81829699  0.18282616    -0.58200
N507        N  0.23087046  0.76205464  0.32350606    -0.05000
N508        N  0.24867644  0.75925196  0.35601264    -0.60700
C509        C  0.24085071  0.78743752  0.37594182     0.96100
C510        C  0.25568552  0.80301538  0.16097939     0.95900
N511        N  0.18861830  0.66001369  0.25516996    -0.06300
N512        N  0.18622152  0.63887078  0.22598372    -0.58800
N513        N  0.21992104  0.67965047  0.34246147    -0.04400
N514        N  0.24288507  0.66916531  0.36739205    -0.60000
N515        N  0.19225615  0.65851014  0.35607379    -0.06300
N516        N  0.19611489  0.63295882  0.39026389    -0.59100
N517        N  0.21593180  0.68177266  0.24116638    -0.04000
N518        N  0.23278688  0.67556733  0.20210273    -0.60100
Mn519      Mn  0.22632824  0.72229764  0.28125735     1.18400
C520        C  0.21379035  0.64875525  0.19292318     0.98200
C521        C  0.22780605  0.63998394  0.39741090     0.98800
N522        N  0.13861658  0.80043317  0.23213496    -0.06300
N523        N  0.14229537  0.81654926  0.18908270    -0.62600
N524        N  0.10686898  0.78319791  0.34498279    -0.05100
N525        N  0.08420243  0.79334896  0.37657709    -0.63300
N526        N  0.13408501  0.80514187  0.33451332    -0.05800
N527        N  0.13017830  0.83081119  0.35890999    -0.62900
N528        N  0.11139036  0.77839505  0.24337505    -0.04700
N529        N  0.09614933  0.77912033  0.20834336    -0.63600
Mn530      Mn  0.17575512  0.79909034  0.27738032     1.10700
C531        C  0.11567976  0.80286298  0.17458808     0.99400
C532        C  0.09891084  0.82298399  0.38550425     0.99500
N533        N  0.11299340  0.67216177  0.37443567    -0.05800
N534        N  0.10382227  0.65146589  0.41495359    -0.61200
N535        N  0.09360170  0.69651771  0.26963330    -0.05200
N536        N  0.07208968  0.69315600  0.24209673    -0.57900
N537        N  0.11186467  0.66867980  0.27372818    -0.06500
N538        N  0.10323824  0.64588246  0.24919456    -0.60800
N539        N  0.09401163  0.69961804  0.37081643    -0.05500
N540        N  0.07167137  0.69811383  0.40870909    -0.58000
Mn541      Mn  0.15119232  0.66377070  0.31583943     1.20200
Mn542      Mn  0.10035089  0.73971520  0.30751862     1.10100
Cl543      Cl  0.16342443  0.73124107  0.29580044    -0.85900
C544        C  0.07802702  0.66798259  0.43604381     0.96400
C545        C  0.07852513  0.66144559  0.22926043     0.96200
C546        C  0.05478259  0.60523650  0.21333212    -0.26300
C547        C  0.05754326  0.64268976  0.20371531    -0.14400
C548        C  0.04074939  0.66086463  0.16999272     0.36300
C549        C  0.02078591  0.64110414  0.14796626    -0.25700
C550        C  0.01704811  0.60367794  0.15917443    -0.15300
C551        C  0.03478715  0.58562726  0.19164373     0.37400
N552        N  0.53249533  0.54729454  0.20243664    -0.89200
H553        H  0.06791291  0.59102849  0.23859225     0.18500
H554        H  0.00729582  0.65501339  0.12294056     0.18500
N555        N  0.04456383  0.69909116  0.15739097    -0.88300
H556        H  0.54684982  0.53810275  0.22717274     0.35800
H557        H  0.54321204  0.53812399  0.17298394     0.40900
H558        H  0.03174935  0.70946297  0.18474533     0.40600
H559        H  0.03263103  0.70795835  0.12987944     0.35400
C560        C  0.06992536  0.62708068  0.01074431    -0.26300
C561        C  0.05583221  0.65104248  0.47947502    -0.14400
C562        C  0.02064070  0.65574425  0.48896814     0.36300
C563        C  0.00026530  0.63441399  0.02709542    -0.25700
C564        C  0.01425261  0.60942116  0.05695988    -0.15000
C565        C  0.04956310  0.60650690  0.04973380     0.37400
N566        N  0.06420475  0.58089185  0.08026937    -0.89200
H567        H  0.09685889  0.62369435  0.00408248     0.18500
H568        H  0.47320453  0.63702865  0.03335960     0.18500
N569        N  0.00453267  0.68077931  0.45992141    -0.88300
H570        H  0.09042838  0.58169099  0.06975006     0.35800
H571        H  0.05476638  0.55546252  0.07860212     0.40900
H572        H  0.00867715  0.67466110  0.42730145     0.40600
H573        H  0.51508317  0.70641978  0.45851428     0.35400
C574        C  0.25526150  0.63948328  0.12544123    -0.26300
C575        C  0.22467051  0.62869793  0.15596177    -0.14400
C576        C  0.20646739  0.59725476  0.15284155     0.36300
C577        C  0.22109052  0.57527943  0.12350145    -0.25700
C578        C  0.25325585  0.58434552  0.09656479    -0.15000
C579        C  0.26966713  0.61758518  0.09577403     0.37400
N580        N  0.30209673  0.62809337  0.06750543    -0.89200
H581        H  0.26909314  0.66405294  0.12628499     0.18500
H582        H  0.20808096  0.54996743  0.12371130     0.18500
N583        N  0.17380835  0.58663000  0.18059414    -0.88300
H584        H  0.30021131  0.65250145  0.04631225     0.35800
H585        H  0.31923613  0.63216619  0.08849231     0.40900
H586        H  0.17503860  0.56149644  0.20053968     0.40600
H587        H  0.15665579  0.58422395  0.15903821     0.35400
C588        C  0.27842691  0.62757769  0.43487498    -0.26300
C589        C  0.24526577  0.61712251  0.43092362    -0.14400
C590        C  0.22968185  0.58499001  0.45890138     0.36300
C591        C  0.24687043  0.56539101  0.99080680    -0.25700
C592        C  0.27907619  0.57695542  0.99641398    -0.15000
C593        C  0.29542596  0.60770803  0.46714190     0.37400
N594        N  0.32877520  0.61930022  0.47128718    -0.89200
H595        H  0.29100811  0.65173801  0.41324483     0.18500
H596        H  0.23435742  0.54153437  0.01328431     0.18500
N597        N  0.19627421  0.57257612  0.45580002    -0.88300
H598        H  0.33714547  0.64292883  0.44799400     0.35800
H599        H  0.34506740  0.59996742  0.46222528     0.40900
H600        H  0.17940134  0.58999299  0.46898518     0.40600
H601        H  0.18948483  0.54767786  0.97686947     0.35400
C602        C  0.10906742  0.86633843  0.06687746    -0.26300
C603        C  0.07415767  0.86230454  0.06940749    -0.14400
C604        C  0.05541206  0.83253784  0.09784943     0.36300
C605        C  0.07090535  0.81003746  0.12844681    -0.25700
C606        C  0.10449719  0.81793453  0.13188399    -0.15000
C607        C  0.12467344  0.84406999  0.09800811     0.37400
N608        N  0.16017701  0.84956517  0.09741414    -0.89200
H609        H  0.12330611  0.88925917  0.04436922     0.18500
H610        H  0.05543411  0.78896692  0.15289016     0.18500
N611        N  0.01971692  0.82785214  0.09976461    -0.88300
H612        H  0.17103859  0.87024044  0.07068307     0.35800
H613        H  0.17151447  0.82640377  0.09052189     0.40900
H614        H  0.00736712  0.82874324  0.13289500     0.40600
H615        H  0.01451106  0.80249417  0.09330013     0.35400
C616        C  0.03693499  0.85358718  0.48091111    -0.26300
C617        C  0.05056813  0.88788906  0.48058376    -0.14400
C618        C  0.07994963  0.90125039  0.44763679     0.36300
C619        C  0.09482057  0.88005942  0.41676656    -0.25700
C620        C  0.08165617  0.84525759  0.41799177    -0.15000
C621        C  0.05212688  0.83206992  0.45069490     0.37400
N622        N  0.03843656  0.79616793  0.45489828    -0.89200
H623        H  0.01574044  0.84232228  0.50737037     0.18500
H624        H  0.11743906  0.89071788  0.39228246     0.18500
N625        N  0.09656238  0.93536839  0.44628456    -0.88300
H626        H  0.01640450  0.79088105  0.47978170     0.35800
H627        H  0.05606160  0.77898032  0.46652301     0.40900
H628        H  0.08352488  0.94851379  0.47067153     0.40600
H629        H  0.09593701  0.95117654  0.41452876     0.35400
C630        C  0.30794392  0.80237430  0.10255404    -0.26300
C631        C  0.27963452  0.82048189  0.11819119    -0.14400
C632        C  0.27495826  0.85427886  0.09241721     0.36300
C633        C  0.29775217  0.86817042  0.05131286    -0.25700
C634        C  0.32514456  0.84926516  0.03524331    -0.15000
C635        C  0.33068804  0.81627378  0.06191609     0.37400
N636        N  0.35867216  0.79567352  0.04826767    -0.89200
H637        H  0.31241346  0.77674126  0.12179328     0.18500
H638        H  0.29326886  0.89312409  0.03059460     0.18500
N639        N  0.24677978  0.87413438  0.10723328    -0.88300
H640        H  0.37324064  0.79289099  0.07380844     0.35800
H641        H  0.37459674  0.80915867  0.01871579     0.40900
H642        H  0.22492445  0.85990129  0.10459126     0.40600
H643        H  0.24763706  0.89876189  0.08525530     0.35400
C644        C  0.28722864  0.77718946  0.41874046    -0.26300
C645        C  0.26076803  0.79835822  0.40800408    -0.14400
C646        C  0.25690206  0.83072152  0.42375367     0.36300
C647        C  0.28170797  0.84312995  0.44518888    -0.25700
C648        C  0.31044006  0.82402682  0.44995787    -0.15000
C649        C  0.31249761  0.78991125  0.43867866     0.37400
N650        N  0.34086908  0.76860925  0.44392757    -0.89200
H651        H  0.28997375  0.75157216  0.40841078     0.18500
H652        H  0.28018810  0.86939729  0.45391644     0.18500
N653        N  0.22908908  0.85194034  0.41592146    -0.88300
H654        H  0.33169020  0.74469941  0.96636835     0.35800
H655        H  0.35807515  0.78063388  0.95935362     0.40900
H656        H  0.23881980  0.87685440  0.39672431     0.40600
H657        H  0.21607107  0.85583931  0.44751116     0.35400
N658        N  0.34376690  0.86043297  0.48913018    -0.03400
C659        C  0.34076470  0.84404800  0.95406310    -0.00900
C660        C  0.36608854  0.85630610  0.91682668    -0.23700
C661        C  0.38552909  0.88147076  0.92925402    -0.23900
C662        C  0.37127992  0.88356479  0.47359642    -0.01000
H663        H  0.36855536  0.84962456  0.88326939     0.12800
H664        H  0.40643321  0.89822701  0.90742288     0.12900
N665        N  0.04167617  0.90312145  0.52124578    -0.03400
C666        C  0.02199200  0.93036866  0.53049771    -0.00900
C667        C  0.02492126  0.93810930  0.57258980    -0.23700
C668        C  0.04674964  0.91539617  0.58995190    -0.23900
C669        C  0.05642105  0.89446015  0.55807081    -0.01000
H670        H  0.51095416  0.95696714  0.59002426     0.12800
H671        H  0.05322628  0.91277425  0.62347144     0.12900
N672        N  0.29177665  0.55986900  0.53619717    -0.03400
C673        C  0.30951705  0.52998235  0.53817276    -0.00900
C674        C  0.29918540  0.50726403  0.57986553    -0.23700
C675        C  0.27552917  0.52387768  0.60528291    -0.23900
C676        C  0.27189419  0.55602899  0.57814870    -0.01000
H677        H  0.31089591  0.98329921  0.59252301     0.12800
H678        H  0.26425641  0.51484919  0.64086793     0.12900
N679        N  0.43682865  0.93833345  0.99688438    -0.36600
N680        N  0.46637573  0.00010071  0.51788749    -0.57100
N681        N  0.40494297  0.53988187  0.51862053    -0.36600
N682        N  0.37363917  0.97476904  0.00227037    -0.57100
C683        C  0.46486463  0.92547797  0.01077935     0.27000
C684        C  0.41292165  0.91121008  0.00757939     0.27000
C685        C  0.42120479  0.55538005  0.54649228     0.27000
C686        C  0.37143155  0.54445409  0.53036338     0.27000
C687        C  0.49425867  0.98383471  0.50219885     0.35600
C688        C  0.47694797  0.53269899  0.52324482     0.35600
C689        C  0.36520153  0.94521091  0.98707637     0.35600
C690        C  0.35032816  0.99832755  0.49306511     0.35600
C691        C  0.45866104  0.88962038  0.03042807    -0.21900
C692        C  0.42590204  0.88040156  0.02744685    -0.21900
C693        C  0.39800887  0.57203844  0.57394040    -0.21900
C694        C  0.36675714  0.56513104  0.56386615    -0.21900
C695        C  0.02264454  0.00672035  0.49618790    -0.22900
C696        C  0.01167804  0.53742804  0.50977044    -0.22900
C697        C  0.33680189  0.95020747  0.96730169    -0.22900
C698        C  0.32716869  0.98381587  0.97155266    -0.22900
C699        C  0.49504340  0.94629410  0.00730621    -0.18300
C700        C  0.38141395  0.91301888  0.99424465    -0.18300
C701        C  0.34486429  0.52797534  0.51431831    -0.18300
C702        C  0.45617846  0.55385250  0.54888707    -0.18300
H703        H  0.47552802  0.87214569  0.04621251     0.14600
H704        H  0.41292318  0.85426035  0.03905512     0.14600
H705        H  0.40288342  0.58690107  0.59952253     0.14600
H706        H  0.34315480  0.57299524  0.58110187     0.14600
H707        H  0.04873704  0.00078345  0.48654170     0.12900
H708        H  0.02782391  0.56015726  0.50969723     0.12900
H709        H  0.32348403  0.93106328  0.95334279     0.12900
H710        H  0.30459239  0.99551481  0.96249700     0.12900
H711        H  0.43494786  0.96347396  0.97758967     0.26200
H712        H  0.41594921  0.52663369  0.49309594     0.26200
N713        N  0.49232217  0.58623405  0.59384823    -0.03400
C714        C  0.49330717  0.58333200  0.63894266    -0.00900
C715        C  0.46877123  0.55804087  0.66454164    -0.23700
C716        C  0.45236003  0.54492975  0.63430059    -0.23900
C717        C  0.46703798  0.56266912  0.59087498    -0.01000
H718        H  0.46337140  0.54993290  0.70129400     0.12800
H719        H  0.43197088  0.52432774  0.64302075     0.12900
N720        N  0.21271793  0.79013895  0.82331563    -0.06100
N721        N  0.21840541  0.80727282  0.85567764    -0.58200
N722        N  0.23442526  0.76564915  0.72071914    -0.05800
N723        N  0.25920006  0.77010226  0.68475480    -0.60300
N724        N  0.21681020  0.79405638  0.71970165    -0.05400
N725        N  0.22924733  0.81826004  0.68278306    -0.58200
N726        N  0.23090320  0.76205603  0.82346255    -0.05000
N727        N  0.24871882  0.75925804  0.85595746    -0.60700
C728        C  0.24089005  0.78743823  0.87589343     0.96100
C729        C  0.25569163  0.80297824  0.66093903     0.95900
N730        N  0.18864734  0.65999666  0.75517365    -0.06300
N731        N  0.18621844  0.63889310  0.72595198    -0.58800
N732        N  0.21995470  0.67966194  0.84245386    -0.04400
N733        N  0.24291365  0.66920790  0.86740586    -0.60000
N734        N  0.19229287  0.65851847  0.85607975    -0.06300
N735        N  0.19614850  0.63299519  0.89030195    -0.59100
N736        N  0.21595479  0.68176290  0.74115812    -0.04000
N737        N  0.23277340  0.67560238  0.70205009    -0.60100
Mn738      Mn  0.22635588  0.72228936  0.78123666     1.18400
C739        C  0.21376010  0.64881027  0.69285704     0.98200
C740        C  0.22783411  0.64004218  0.89745314     0.98800
N741        N  0.13862212  0.80038555  0.73210213    -0.06300
N742        N  0.14227812  0.81651908  0.68905983    -0.62600
N743        N  0.10687867  0.78316968  0.84494009    -0.05100
N744        N  0.08420086  0.79333184  0.87651076    -0.63300
N745        N  0.13409063  0.80512049  0.83446665    -0.05800
N746        N  0.13016893  0.83080556  0.85883757    -0.62900
N747        N  0.11139851  0.77834335  0.74334999    -0.04700
N748        N  0.09613473  0.77908515  0.70833550    -0.63600
Mn749      Mn  0.17576750  0.79906464  0.77734434     1.10700
C750        C  0.11565068  0.80284062  0.67458044     0.99400
C751        C  0.09889736  0.82297972  0.88542076     0.99500
N752        N  0.11301845  0.67212811  0.87443630    -0.05800
N753        N  0.10382675  0.65141810  0.91494130    -0.61200
N754        N  0.09363236  0.69645932  0.76963458    -0.05200
N755        N  0.07211939  0.69308503  0.74210489    -0.57900
N756        N  0.11189694  0.66862347  0.77374228    -0.06500
N757        N  0.10327019  0.64581401  0.74922375    -0.60800
N758        N  0.09402908  0.69957806  0.87080553    -0.05500
N759        N  0.07166156  0.69805484  0.90867693    -0.58000
Mn760      Mn  0.15122719  0.66374411  0.81584814     1.20200
Mn761      Mn  0.10037042  0.73967031  0.80749955     1.10100
Cl762      Cl  0.16344728  0.73121574  0.79578662    -0.85900
C763        C  0.07801167  0.66792081  0.93601090     0.96400
C764        C  0.07855472  0.66136904  0.72928634     0.96200
C765        C  0.05486388  0.60516269  0.71327475    -0.26300
C766        C  0.05758649  0.64261775  0.70372029    -0.14400
C767        C  0.04075882  0.66080397  0.67004375     0.36300
C768        C  0.02080079  0.64105294  0.64800296    -0.25700
C769        C  0.01709663  0.60362501  0.65915411    -0.15300
C770        C  0.03486917  0.58556235  0.69157386     0.37400
N771        N  0.53260799  0.54722825  0.70230573    -0.89200
H772        H  0.06802004  0.59094632  0.73849865     0.18500
H773        H  0.00728260  0.65497042  0.62301722     0.18500
N774        N  0.04452695  0.69903548  0.65750744    -0.88300
H775        H  0.54698568  0.53802557  0.72701469     0.35800
H776        H  0.54331606  0.53809422  0.67282669     0.40900
H777        H  0.03169692  0.70936292  0.68489149     0.40600
H778        H  0.03258276  0.70791300  0.63001202     0.35400
C779        C  0.06993155  0.62708225  0.51073312    -0.26300
C780        C  0.05581310  0.65098157  0.97943693    -0.14400
C781        C  0.02061165  0.65563607  0.98888687     0.36300
C782        C  0.00028605  0.63450246  0.52715499    -0.25700
C783        C  0.01425785  0.60944400  0.55695777    -0.15000
C784        C  0.04956262  0.60648610  0.54969901     0.37400
N785        N  0.06418790  0.58080452  0.58017240    -0.89200
H786        H  0.09685811  0.62366081  0.50404356     0.18500
H787        H  0.47323143  0.63715466  0.53344996     0.18500
N788        N  0.00448712  0.68059972  0.95977332    -0.88300
H789        H  0.09040962  0.58158005  0.56963736     0.35800
H790        H  0.05471951  0.55540250  0.57844392     0.40900
H791        H  0.00867660  0.67444352  0.92717446     0.40600
H792        H  0.51499068  0.70626693  0.95833125     0.35400
C793        C  0.25522443  0.63953512  0.62537552    -0.26300
C794        C  0.22460144  0.62879619  0.65584254    -0.14400
C795        C  0.20633725  0.59741534  0.65264167     0.36300
C796        C  0.22093828  0.57542808  0.62330438    -0.25700
C797        C  0.25314181  0.58442537  0.59645542    -0.15000
C798        C  0.26961082  0.61762336  0.59571692     0.37400
N799        N  0.30208221  0.62806070  0.56753029    -0.89200
H800        H  0.26910259  0.66406211  0.62627647     0.18500
H801        H  0.20788759  0.55014832  0.62347062     0.18500
N802        N  0.17363979  0.58685949  0.68031926    -0.88300
H803        H  0.30027339  0.65249020  0.54633190     0.35800
H804        H  0.31919495  0.63207306  0.58857485     0.40900
H805        H  0.17479350  0.56170346  0.70025219     0.40600
H806        H  0.15651090  0.58452684  0.65871033     0.35400
C807        C  0.27846798  0.62764711  0.93489305    -0.26300
C808        C  0.24529371  0.61720320  0.93098292    -0.14400
C809        C  0.22969679  0.58509640  0.95900929     0.36300
C810        C  0.24684358  0.56528706  0.49071895    -0.25700
C811        C  0.27902641  0.57687485  0.49638455    -0.15000
C812        C  0.29547860  0.60777705  0.96714558     0.37400
N813        N  0.32884382  0.61935537  0.97124458    -0.89200
H814        H  0.29105428  0.65179296  0.91323294     0.18500
H815        H  0.23433253  0.54142076  0.51317684     0.18500
N816        N  0.19626543  0.57270898  0.95597352    -0.88300
H817        H  0.33720973  0.64298047  0.94794445     0.35800
H818        H  0.34512060  0.60001564  0.96216182     0.40900
H819        H  0.17942455  0.59016094  0.96914516     0.40600
H820        H  0.18950830  0.54752553  0.47665537     0.35400
C821        C  0.10906467  0.86631921  0.56685830    -0.26300
C822        C  0.07414826  0.86235369  0.56941988    -0.14400
C823        C  0.05536375  0.83262580  0.59789568     0.36300
C824        C  0.07083366  0.81010493  0.62850393    -0.25700
C825        C  0.10444806  0.81793535  0.63189813    -0.15000
C826        C  0.12464985  0.84402463  0.59798717     0.37400
N827        N  0.16016637  0.84944601  0.59735088    -0.89200
H828        H  0.12333368  0.88920750  0.54431972     0.18500
H829        H  0.05533887  0.78906919  0.65297594     0.18500
N830        N  0.01966288  0.82799840  0.59982041    -0.88300
H831        H  0.17104888  0.87009211  0.57059446     0.35800
H832        H  0.17144752  0.82625213  0.59047263     0.40900
H833        H  0.00732547  0.82892199  0.63294880     0.40600
H834        H  0.01441421  0.80264331  0.59338284     0.35400
C835        C  0.03695730  0.85351781  0.98091222    -0.26300
C836        C  0.05056433  0.88783310  0.98056848    -0.14400
C837        C  0.07990326  0.90123590  0.94756638     0.36300
C838        C  0.09477226  0.88006143  0.91667213    -0.25700
C839        C  0.08164001  0.84524201  0.91792040    -0.15000
C840        C  0.05213937  0.83202305  0.95066150     0.37400
N841        N  0.03846609  0.79611457  0.95486290    -0.89200
H842        H  0.01578665  0.84223209  0.00739815     0.18500
H843        H  0.11736250  0.89074774  0.89214846     0.18500
N844        N  0.09647124  0.93538513  0.94616884    -0.88300
H845        H  0.01645235  0.79080764  0.97977103     0.35800
H846        H  0.05611276  0.77893624  0.96645058     0.40900
H847        H  0.08344404  0.94850613  0.97059080     0.40600
H848        H  0.09577507  0.95118281  0.91443079     0.35400
C849        C  0.30796710  0.80236553  0.60252803    -0.26300
C850        C  0.27962549  0.82043932  0.61813828    -0.14400
C851        C  0.27489646  0.85419986  0.59232241     0.36300
C852        C  0.29768704  0.86810312  0.55122442    -0.25700
C853        C  0.32512708  0.84924453  0.53519793    -0.15000
C854        C  0.33070506  0.81627436  0.56188690     0.37400
N855        N  0.35871639  0.79570389  0.54825212    -0.89200
H856        H  0.31246707  0.77675386  0.62179187     0.18500
H857        H  0.29317111  0.89303274  0.53048426     0.18500
N858        N  0.24666633  0.87400414  0.60709015    -0.88300
H859        H  0.37328812  0.79296110  0.57378628     0.35800
H860        H  0.37462598  0.80918876  0.51868604     0.40900
H861        H  0.22484613  0.85970240  0.60446795     0.40600
H862        H  0.24747663  0.89860611  0.58507226     0.35400
C863        C  0.28722767  0.77714177  0.91875817    -0.26300
C864        C  0.26078046  0.79832684  0.90800625    -0.14400
C865        C  0.25690264  0.83067079  0.92380000     0.36300
C866        C  0.28167951  0.84304064  0.94531229    -0.25700
C867        C  0.31040964  0.82393368  0.95008178    -0.15000
C868        C  0.31247929  0.78983653  0.93874783     0.37400
N869        N  0.34085696  0.76853825  0.94396976    -0.89200
H870        H  0.28998377  0.75153922  0.90839048     0.18500
H871        H  0.28015445  0.86929838  0.95406862     0.18500
N872        N  0.22911634  0.85191762  0.91592178    -0.88300
H873        H  0.33169867  0.74479199  0.46637364     0.35800
H874        H  0.35810259  0.78072445  0.45926765     0.40900
H875        H  0.23887729  0.87683654  0.89676256     0.40600
H876        H  0.21606568  0.85580272  0.94749773     0.35400
N877        N  0.84374983  0.36042019  0.98914762    -0.03400
C878        C  0.84078847  0.34412632  0.45398988    -0.00900
C879        C  0.86614691  0.35639240  0.41679972    -0.23700
C880        C  0.88560622  0.38149056  0.42932438    -0.23900
C881        C  0.87122789  0.38359117  0.97351798    -0.01000
H882        H  0.86863305  0.34975723  0.38321601     0.12800
H883        H  0.90653378  0.39824600  0.40754735     0.12900
N884        N  0.54167417  0.40306453  0.02123172    -0.03400
C885        C  0.52193584  0.43026294  0.03051588    -0.00900
C886        C  0.52478194  0.43794478  0.07266273    -0.23700
C887        C  0.54661916  0.41524661  0.09002739    -0.23900
C888        C  0.55637608  0.39437658  0.05809314    -0.01000
H889        H  0.01076525  0.45676189  0.09011581     0.12800
H890        H  0.55305331  0.41259301  0.12357383     0.12900
N891        N  0.79187402  0.05990586  0.03616518    -0.03400
C892        C  0.80960959  0.03001776  0.03802004    -0.00900
C893        C  0.79929919  0.00723009  0.07966433    -0.23700
C894        C  0.77566927  0.02380197  0.10517998    -0.23900
C895        C  0.77202573  0.05599915  0.07815089    -0.01000
H896        H  0.81101187  0.48324139  0.09223021     0.12800
H897        H  0.76441529  0.01470760  0.14075936     0.12900
N898        N  0.93681814  0.43834577  0.49701139    -0.36600
N899        N  0.96641129  0.50005684  0.01782615    -0.57100
N900        N  0.90502440  0.03989576  0.01851553    -0.36600
N901        N  0.87357802  0.47470698  0.50246934    -0.57100
C902        C  0.96486994  0.42552031  0.51089452     0.27000
C903        C  0.91293203  0.41120211  0.50771601     0.27000
C904        C  0.92126943  0.05536611  0.04642710     0.27000
C905        C  0.87151681  0.04450961  0.03019899     0.27000
C906        C  0.99428888  0.48376842  0.00216858     0.35600
C907        C  0.97700527  0.03261622  0.02329390     0.35600
C908        C  0.86516611  0.44514635  0.48726183     0.35600
C909        C  0.85041996  0.49841834  0.99283771     0.35600
C910        C  0.95869260  0.38966473  0.53056096    -0.21900
C911        C  0.92593838  0.38041214  0.52758679    -0.21900
C912        C  0.89807348  0.07205977  0.07382761    -0.21900
C913        C  0.86683495  0.06519461  0.06369301    -0.21900
C914        C  0.52269217  0.50660824  0.99627885    -0.22900
C915        C  0.51174408  0.03729720  0.00992566    -0.22900
C916        C  0.83675204  0.45011420  0.46751179    -0.22900
C917        C  0.82708052  0.48370342  0.47179622    -0.22900
C918        C  0.99504426  0.44636229  0.50736377    -0.18300
C919        C  0.88142462  0.41297940  0.49437725    -0.18300
C920        C  0.84495329  0.02804742  0.01412850    -0.18300
C921        C  0.95622532  0.05378564  0.04890184    -0.18300
H922        H  0.97557479  0.37221184  0.54634552     0.14600
H923        H  0.91298024  0.35426076  0.53919944     0.14600
H924        H  0.90293636  0.08691517  0.09942202     0.14600
H925        H  0.84323402  0.07309035  0.08088882     0.14600
H926        H  0.54878195  0.50064007  0.98669689     0.12900
H927        H  0.52791012  0.05997717  0.00997557     0.12900
H928        H  0.82345597  0.43096681  0.45353222     0.12900
H929        H  0.80449306  0.49538163  0.46274989     0.12900
H930        H  0.93491497  0.46347387  0.47770737     0.26200
H931        H  0.91603713  0.02663476  0.99300810     0.26200
N932        N  0.99232248  0.08621881  0.09386301    -0.03400
C933        C  0.99326867  0.08337008  0.13896199    -0.00900
C934        C  0.96871894  0.05809454  0.16456631    -0.23700
C935        C  0.95234318  0.04493665  0.13432477    -0.23900
C936        C  0.96705562  0.06263278  0.09089306    -0.01000
H937        H  0.96328899  0.05002437  0.20132304     0.12800
H938        H  0.93195171  0.02433704  0.14304978     0.12900
N939        N  0.71269379  0.29014396  0.32335020    -0.06100
N940        N  0.71837708  0.30727705  0.35571274    -0.58200
N941        N  0.73440459  0.26567352  0.22074553    -0.05800
N942        N  0.75918204  0.27013087  0.18478386    -0.60300
N943        N  0.71679645  0.29408601  0.21973521    -0.05400
N944        N  0.72924227  0.31829699  0.18282623    -0.58200
N945        N  0.73087042  0.26205458  0.32350613    -0.05000
N946        N  0.74867632  0.25925184  0.35601281    -0.60700
C947        C  0.74085080  0.28743756  0.37594175     0.96100
C948        C  0.75568558  0.30301535  0.16097946     0.95900
N949        N  0.68861829  0.16001365  0.25517005    -0.06300
N950        N  0.68622148  0.13887080  0.22598377    -0.58800
N951        N  0.71992092  0.17965044  0.34246166    -0.04400
N952        N  0.74288493  0.16916526  0.36739224    -0.60000
N953        N  0.69225605  0.15851008  0.35607386    -0.06300
N954        N  0.69611476  0.13295878  0.39026408    -0.59100
N955        N  0.71593178  0.18177261  0.24116653    -0.04000
N956        N  0.73278688  0.17556737  0.20210281    -0.60100
Mn957      Mn  0.72632820  0.22229759  0.28125749     1.18400
C958        C  0.71379041  0.14875524  0.19292332     0.98200
C959        C  0.72780596  0.13998384  0.39741099     0.98800
N960        N  0.63861653  0.30043332  0.23213501    -0.06300
N961        N  0.64229538  0.31654924  0.18908268    -0.62600
N962        N  0.60686891  0.28319795  0.34498279    -0.05100
N963        N  0.58420234  0.29334897  0.37657712    -0.63300
N964        N  0.63408493  0.30514195  0.33451335    -0.05800
N965        N  0.63017821  0.33081122  0.35891011    -0.62900
N966        N  0.61139037  0.27839509  0.24337505    -0.04700
N967        N  0.59614933  0.27912039  0.20834334    -0.63600
Mn968      Mn  0.67575510  0.29909038  0.27738041     1.10700
C969        C  0.61567973  0.30286309  0.17458804     0.99400
C970        C  0.59891071  0.32298392  0.38550443     0.99500
N971        N  0.61299333  0.17216180  0.37443563    -0.05800
N972        N  0.60382227  0.15146590  0.41495353    -0.61200
N973        N  0.59360165  0.19651775  0.26963324    -0.05200
N974        N  0.57208967  0.19315602  0.24209664    -0.57900
N975        N  0.61186463  0.16867985  0.27372819    -0.06500
N976        N  0.60323823  0.14588248  0.24919458    -0.60800
N977        N  0.59401156  0.19961806  0.37081640    -0.05500
N978        N  0.57167138  0.19811387  0.40870917    -0.58000
Mn979      Mn  0.65119223  0.16377072  0.31583946     1.20200
Mn980      Mn  0.60035082  0.23971520  0.30751858     1.10100
Cl981      Cl  0.66342436  0.23124108  0.29580050    -0.85900
C982        C  0.57802704  0.16798258  0.43604380     0.96400
C983        C  0.57852511  0.16144560  0.22926042     0.96200
C984        C  0.55478258  0.10523659  0.21333207    -0.26300
C985        C  0.55754317  0.14268991  0.20371524    -0.14400
C986        C  0.54074927  0.16086477  0.16999260     0.36300
C987        C  0.52078584  0.14110415  0.14796626    -0.25700
C988        C  0.51704805  0.10367793  0.15917457    -0.15300
C989        C  0.53478706  0.08562732  0.19164381     0.37400
N990        N  0.03249503  0.04729463  0.20243708    -0.89200
H991        H  0.56791283  0.09102853  0.23859222     0.18500
H992        H  0.50729566  0.15501326  0.12294069     0.18500
N993        N  0.54456311  0.19909147  0.15739080    -0.88300
H994        H  0.04684940  0.03810288  0.22717289     0.35800
H995        H  0.04321170  0.03812380  0.17298391     0.40900
H996        H  0.53174857  0.20946315  0.18474529     0.40600
H997        H  0.53263024  0.20795824  0.12988020     0.35400
C998        C  0.56992509  0.12708075  0.01074448    -0.26300
C999        C  0.55583243  0.15104246  0.47947516    -0.14400
C1000       C  0.52064073  0.15574417  0.48896824     0.36300
C1001       C  0.50026520  0.13441420  0.02709536    -0.25700
C1002       C  0.51425233  0.10942129  0.05695987    -0.15000
C1003       C  0.54956278  0.10650703  0.04973388     0.37400
N1004       N  0.56420367  0.08089181  0.08026984    -0.89200
H1005       H  0.59685876  0.12369461  0.00408289     0.18500
H1006       H  0.97320448  0.13702907  0.03335971     0.18500
N1007       N  0.50453267  0.18077921  0.45992145    -0.88300
H1008       H  0.59042917  0.08169116  0.06975025     0.35800
H1009       H  0.55476586  0.05546367  0.07860203     0.40900
H1010       H  0.50867716  0.17466100  0.42730152     0.40600
H1011       H  0.01508307  0.20641974  0.45851426     0.35400
C1012       C  0.75526165  0.13948342  0.12544122    -0.26300
C1013       C  0.72467062  0.12869807  0.15596178    -0.14400
C1014       C  0.70646742  0.09725484  0.15284151     0.36300
C1015       C  0.72109052  0.07527945  0.12350149    -0.25700
C1016       C  0.75325573  0.08434552  0.09656482    -0.15000
C1017       C  0.76966703  0.11758519  0.09577395     0.37400
N1018       N  0.80209619  0.12809328  0.06750459    -0.89200
H1019       H  0.76909359  0.16405301  0.12628485     0.18500
H1020       H  0.70808103  0.04996742  0.12371131     0.18500
N1021       N  0.67380837  0.08663004  0.18059409    -0.88300
H1022       H  0.80021066  0.15250083  0.04631241     0.35800
H1023       H  0.81923658  0.13216594  0.08849218     0.40900
H1024       H  0.67503868  0.06149652  0.20053956     0.40600
H1025       H  0.65665579  0.08422396  0.15903820     0.35400
C1026       C  0.77842704  0.12757813  0.43487470    -0.26300
C1027       C  0.74526578  0.11712268  0.43092374    -0.14400
C1028       C  0.72968189  0.08499008  0.45890143     0.36300
C1029       C  0.74687021  0.06539091  0.99080687    -0.25700
C1030       C  0.77907598  0.07695525  0.99641414    -0.15000
C1031       C  0.79542624  0.10770839  0.46714150     0.37400
N1032       N  0.82877595  0.11930048  0.47128582    -0.89200
H1033       H  0.79100792  0.15173852  0.41324448     0.18500
H1034       H  0.73435698  0.04153432  0.01328455     0.18500
N1035       N  0.69627416  0.07257622  0.45580017    -0.88300
H1036       H  0.83714603  0.14292828  0.44799345     0.35800
H1037       H  0.84506794  0.09996747  0.46222423     0.40900
H1038       H  0.67940133  0.08999310  0.46898532     0.40600
H1039       H  0.68948399  0.04767717  0.97686988     0.35400
C1040       C  0.60906744  0.36633852  0.06687731    -0.26300
C1041       C  0.57415767  0.36230461  0.06940746    -0.14400
C1042       C  0.55541208  0.33253803  0.09784924     0.36300
C1043       C  0.57090545  0.31003778  0.12844654    -0.25700
C1044       C  0.60449735  0.31793476  0.13188371    -0.15000
C1045       C  0.62467353  0.34407022  0.09800798     0.37400
N1046       N  0.66017719  0.34956603  0.09741337    -0.89200
H1047       H  0.62330604  0.38925912  0.04436906     0.18500
H1048       H  0.55543423  0.28896708  0.15288957     0.18500
N1049       N  0.51971695  0.32785205  0.09976429    -0.88300
H1050       H  0.67103808  0.37023970  0.07068303     0.35800
H1051       H  0.67151502  0.32640367  0.09052094     0.40900
H1052       H  0.50736677  0.32874312  0.13289510     0.40600
H1053       H  0.51451133  0.30249418  0.09330014     0.35400
C1054       C  0.53693481  0.35358716  0.48091140    -0.26300
C1055       C  0.55056804  0.38788916  0.48058375    -0.14400
C1056       C  0.57994948  0.40125033  0.44763700     0.36300
C1057       C  0.59482020  0.38005917  0.41676692    -0.25700
C1058       C  0.58165570  0.34525726  0.41799220    -0.15000
C1059       C  0.55212657  0.33206962  0.45069546     0.37400
N1060       N  0.53843561  0.29616746  0.45490019    -0.89200
H1061       H  0.51574035  0.34232258  0.50737054     0.18500
H1062       H  0.61743845  0.39071779  0.39228252     0.18500
N1063       N  0.59656226  0.43536850  0.44628421    -0.88300
H1064       H  0.51640565  0.29088119  0.47978231     0.35800
H1065       H  0.55606136  0.27897920  0.46652508     0.40900
H1066       H  0.58352474  0.44851404  0.47067136     0.40600
H1067       H  0.59593651  0.45117636  0.41452881     0.35400
C1068       C  0.80794407  0.30237425  0.10255384    -0.26300
C1069       C  0.77963465  0.32048184  0.11819110    -0.14400
C1070       C  0.77495852  0.35427882  0.09241738     0.36300
C1071       C  0.79775230  0.36817028  0.05131284    -0.25700
C1072       C  0.82514473  0.34926503  0.03524328    -0.15000
C1073       C  0.83068834  0.31627382  0.06191604     0.37400
N1074       N  0.85867320  0.29567418  0.04826757    -0.89200
H1075       H  0.81241333  0.27674119  0.12179326     0.18500
H1076       H  0.79326909  0.39312407  0.03059482     0.18500
N1077       N  0.74678071  0.37413494  0.10723374    -0.88300
H1078       H  0.87324152  0.29289156  0.07380838     0.35800
H1079       H  0.87459712  0.30915901  0.01871675     0.40900
H1080       H  0.72492395  0.35990123  0.10459229     0.40600
H1081       H  0.74763804  0.39876161  0.08525595     0.35400
C1082       C  0.78722874  0.27718941  0.41874055    -0.26300
C1083       C  0.76076803  0.29835813  0.40800421    -0.14400
C1084       C  0.75690201  0.33072149  0.42375388     0.36300
C1085       C  0.78170798  0.34312998  0.44518891    -0.25700
C1086       C  0.81044008  0.32402697  0.44995794    -0.15000
C1087       C  0.81249769  0.28991137  0.43867857     0.37400
N1088       N  0.84086985  0.26861030  0.44392663    -0.89200
H1089       H  0.78997406  0.25157213  0.40841055     0.18500
H1090       H  0.78018816  0.36939728  0.45391649     0.18500
N1091       N  0.72908889  0.35194032  0.41592195    -0.88300
H1092       H  0.83168994  0.24469938  0.96636848     0.35800
H1093       H  0.85807537  0.28063349  0.95935377     0.40900
H1094       H  0.73881960  0.37685464  0.39672433     0.40600
H1095       H  0.71607104  0.35583937  0.44751092     0.35400
N1096       N  0.84376689  0.36043306  0.48913033    -0.03400
C1097       C  0.84076473  0.34404793  0.95406285    -0.00900
C1098       C  0.86608865  0.35630592  0.91682638    -0.23700
C1099       C  0.88552889  0.38147055  0.92925435    -0.23900
C1100       C  0.87128004  0.38356493  0.47359639    -0.01000
H1101       H  0.86855596  0.34962458  0.88326888     0.12800
H1102       H  0.90643304  0.39822703  0.90742376     0.12900
N1103       N  0.54167614  0.40312151  0.52124582    -0.03400
C1104       C  0.52199186  0.43036867  0.53049782    -0.00900
C1105       C  0.52492109  0.43810949  0.57258986    -0.23700
C1106       C  0.54674955  0.41539626  0.58995195    -0.23900
C1107       C  0.55642100  0.39446014  0.55807086    -0.01000
H1108       H  0.01095371  0.45696731  0.59002414     0.12800
H1109       H  0.55322623  0.41277404  0.62347150     0.12900
N1110       N  0.79177657  0.05986897  0.53619736    -0.03400
C1111       C  0.80951690  0.02998234  0.53817298    -0.00900
C1112       C  0.79918528  0.00726401  0.57986587    -0.23700
C1113       C  0.77552896  0.02387759  0.60528359    -0.23900
C1114       C  0.77189409  0.05602891  0.57814904    -0.01000
H1115       H  0.81089521  0.48329875  0.59252337     0.12800
H1116       H  0.76425604  0.01484943  0.64086868     0.12900
N1117       N  0.93682856  0.43833353  0.99688443    -0.36600
N1118       N  0.96637574  0.50010089  0.51788759    -0.57100
N1119       N  0.90494268  0.03988182  0.51862061    -0.36600
N1120       N  0.87363938  0.47476905  0.00227067    -0.57100
C1121       C  0.96486456  0.42547801  0.01077928     0.27000
C1122       C  0.91292156  0.41121008  0.00757939     0.27000
C1123       C  0.92120470  0.05537991  0.54649198     0.27000
C1124       C  0.87143141  0.04445398  0.53036330     0.27000
C1125       C  0.99425850  0.48383487  0.50219889     0.35600
C1126       C  0.97694779  0.03269866  0.52324478     0.35600
C1127       C  0.86520170  0.44521096  0.98707659     0.35600
C1128       C  0.85032814  0.49832748  0.49306509     0.35600
C1129       C  0.95866082  0.38962051  0.03042790    -0.21900
C1130       C  0.92590186  0.38040163  0.02744689    -0.21900
C1131       C  0.89800876  0.07203821  0.57394020    -0.21900
C1132       C  0.86675706  0.06513090  0.56386598    -0.21900
C1133       C  0.52264426  0.50672069  0.49618802    -0.22900
C1134       C  0.51167781  0.03742750  0.50977044    -0.22900
C1135       C  0.83680227  0.45020748  0.96730187    -0.22900
C1136       C  0.82716915  0.48381581  0.97155277    -0.22900
C1137       C  0.99504337  0.44629409  0.00730622    -0.18300
C1138       C  0.88141387  0.41301885  0.99424482    -0.18300
C1139       C  0.84486407  0.02797535  0.51431840    -0.18300
C1140       C  0.95617839  0.05385239  0.54888701    -0.18300
H1141       H  0.97552770  0.37214569  0.04621227     0.14600
H1142       H  0.91292326  0.35426032  0.03905525     0.14600
H1143       H  0.90288327  0.08690101  0.59952211     0.14600
H1144       H  0.84315476  0.07299533  0.58110142     0.14600
H1145       H  0.54873656  0.50078337  0.48654146     0.12900
H1146       H  0.52782327  0.06015689  0.50969746     0.12900
H1147       H  0.82348447  0.43106337  0.95334279     0.12900
H1148       H  0.80459289  0.49551464  0.96249683     0.12900
H1149       H  0.93494785  0.46347389  0.97758986     0.26200
H1150       H  0.91594900  0.02663328  0.49309515     0.26200
N1151       N  0.99232218  0.08623401  0.59384829    -0.03400
C1152       C  0.99330720  0.08333181  0.63894279    -0.00900
C1153       C  0.96877122  0.05804076  0.66454168    -0.23700
C1154       C  0.95235999  0.04492976  0.63430059    -0.23900
C1155       C  0.96703794  0.06266908  0.59087497    -0.01000
H1156       H  0.96337130  0.04993274  0.70129402     0.12800
H1157       H  0.93197079  0.02432780  0.64302079     0.12900
N1158       N  0.71271794  0.29013897  0.82331560    -0.06100
N1159       N  0.71840541  0.30727280  0.85567768    -0.58200
N1160       N  0.73442529  0.26564917  0.72071923    -0.05800
N1161       N  0.75920002  0.27010224  0.68475484    -0.60300
N1162       N  0.71681013  0.29405634  0.71970166    -0.05400
N1163       N  0.72924732  0.31826001  0.68278309    -0.58200
N1164       N  0.73090315  0.26205602  0.82346261    -0.05000
N1165       N  0.74871892  0.25925816  0.85595735    -0.60700
C1166       C  0.74089014  0.28743832  0.87589338     0.96100
C1167       C  0.75569164  0.30297824  0.66093905     0.95900
N1168       N  0.68864730  0.15999670  0.75517363    -0.06300
N1169       N  0.68621849  0.13889307  0.72595204    -0.58800
N1170       N  0.71995468  0.17966196  0.84245394    -0.04400
N1171       N  0.74291361  0.16920794  0.86740592    -0.60000
N1172       N  0.69229284  0.15851843  0.85607974    -0.06300
N1173       N  0.69614850  0.13299515  0.89030192    -0.59100
N1174       N  0.71595480  0.18176288  0.74115824    -0.04000
N1175       N  0.73277341  0.17560234  0.70205022    -0.60100
Mn1176     Mn  0.72635590  0.22228936  0.78123678     1.18400
C1177       C  0.71376016  0.14881022  0.69285711     0.98200
C1178       C  0.72783408  0.14004220  0.89745321     0.98800
N1179       N  0.63862213  0.30038554  0.73210223    -0.06300
N1180       N  0.64227812  0.31651905  0.68905990    -0.62600
N1181       N  0.60687865  0.28316963  0.84494019    -0.05100
N1182       N  0.58420083  0.29333181  0.87651081    -0.63300
N1183       N  0.63409059  0.30512048  0.83446671    -0.05800
N1184       N  0.63016887  0.33080558  0.85883756    -0.62900
N1185       N  0.61139852  0.27834333  0.74335012    -0.04700
N1186       N  0.59613476  0.27908512  0.70833561    -0.63600
Mn1187     Mn  0.67576747  0.29906463  0.77734440     1.10700
C1188       C  0.61565068  0.30284059  0.67458051     0.99400
C1189       C  0.59889734  0.32297972  0.88542074     0.99500
N1190       N  0.61301843  0.17212805  0.87443636    -0.05800
N1191       N  0.60382666  0.15141803  0.91494136    -0.61200
N1192       N  0.59363231  0.19645929  0.76963469    -0.05200
N1193       N  0.57211942  0.19308502  0.74210492    -0.57900
N1194       N  0.61189696  0.16862348  0.77374233    -0.06500
N1195       N  0.60327022  0.14581402  0.74922380    -0.60800
N1196       N  0.59402911  0.19957805  0.87080557    -0.05500
N1197       N  0.57166158  0.19805485  0.90867695    -0.58000
Mn1198     Mn  0.65122718  0.16374407  0.81584814     1.20200
Mn1199     Mn  0.60037038  0.23967029  0.80749960     1.10100
Cl1200     Cl  0.66344729  0.23121571  0.79578667    -0.85900
C1201       C  0.57801160  0.16792079  0.93601093     0.96400
C1202       C  0.57855477  0.16136905  0.72928637     0.96200
C1203       C  0.55486410  0.10516272  0.71327511    -0.26300
C1204       C  0.55758650  0.14261773  0.70372047    -0.14400
C1205       C  0.54075885  0.16080387  0.67004382     0.36300
C1206       C  0.52080083  0.14105275  0.64800314    -0.25700
C1207       C  0.51709674  0.10362481  0.65915445    -0.15300
C1208       C  0.53486919  0.08556226  0.69157443     0.37400
N1209       N  0.03260841  0.04722804  0.70230871    -0.89200
H1210       H  0.56802026  0.09094654  0.73849889     0.18500
H1211       H  0.50728259  0.15497024  0.62301748     0.18500
N1212       N  0.54452692  0.19903541  0.65750749    -0.88300
H1213       H  0.04698529  0.03802722  0.72701344     0.35800
H1214       H  0.04331670  0.03809230  0.67282659     0.40900
H1215       H  0.53169690  0.20936282  0.68489155     0.40600
H1216       H  0.53258266  0.20791291  0.63001210     0.35400
C1217       C  0.56993188  0.12708216  0.51073323    -0.26300
C1218       C  0.55581302  0.15098168  0.97943701    -0.14400
C1219       C  0.52061164  0.15563620  0.98888681     0.36300
C1220       C  0.50028602  0.13450242  0.52715505    -0.25700
C1221       C  0.51425786  0.10944396  0.55695776    -0.15000
C1222       C  0.54956276  0.10648596  0.54969893     0.37400
N1223       N  0.56418763  0.08080407  0.58017241    -0.89200
H1224       H  0.59685854  0.12366086  0.50404399     0.18500
H1225       H  0.97323131  0.13715453  0.53344999     0.18500
N1226       N  0.50448719  0.18059951  0.95977270    -0.88300
H1227       H  0.59040963  0.08157958  0.56963787     0.35800
H1228       H  0.55471936  0.05540259  0.57844349     0.40900
H1229       H  0.50867697  0.17444313  0.92717482     0.40600
H1230       H  0.01499075  0.20626735  0.95833004     0.35400
C1231       C  0.75522450  0.13953504  0.62537564    -0.26300
C1232       C  0.72460152  0.12879612  0.65584261    -0.14400
C1233       C  0.70633726  0.09741540  0.65264169     0.36300
C1234       C  0.72093831  0.07542804  0.62330449    -0.25700
C1235       C  0.75314186  0.08442538  0.59645554    -0.15000
C1236       C  0.76961081  0.11762349  0.59571679     0.37400
N1237       N  0.80208203  0.12806130  0.56752963    -0.89200
H1238       H  0.76910244  0.16406215  0.62627640     0.18500
H1239       H  0.70788740  0.05014849  0.62347013     0.18500
N1240       N  0.67363960  0.08686011  0.68031874    -0.88300
H1241       H  0.80027315  0.15249002  0.54633225     0.35800
H1242       H  0.81919544  0.13207345  0.58857440     0.40900
H1243       H  0.67479305  0.06170322  0.70025251     0.40600
H1244       H  0.65651151  0.08452738  0.65870983     0.35400
C1245       C  0.77846781  0.12764691  0.93489310    -0.26300
C1246       C  0.74529364  0.11720317  0.93098293    -0.14400
C1247       C  0.72969663  0.08509647  0.95900947     0.36300
C1248       C  0.74684359  0.06528719  0.49071897    -0.25700
C1249       C  0.77902656  0.07687505  0.49638446    -0.15000
C1250       C  0.79547835  0.10777695  0.96714580     0.37400
N1251       N  0.82884336  0.11935556  0.97124490    -0.89200
H1252       H  0.79105387  0.15179286  0.91323300     0.18500
H1253       H  0.73433234  0.04142089  0.51317677     0.18500
N1254       N  0.69626505  0.07271003  0.95597351    -0.88300
H1255       H  0.83720911  0.14298047  0.94794444     0.35800
H1256       H  0.84512039  0.10001550  0.96216203     0.40900
H1257       H  0.67942514  0.09016087  0.96914492     0.40600
H1258       H  0.68950819  0.04752565  0.47665557     0.35400
C1259       C  0.60906453  0.36631915  0.56685840    -0.26300
C1260       C  0.57414810  0.36235351  0.56942008    -0.14400
C1261       C  0.55536357  0.33262560  0.59789595     0.36300
C1262       C  0.57083348  0.31010476  0.62850426    -0.25700
C1263       C  0.60444805  0.31793532  0.63189816    -0.15000
C1264       C  0.62464985  0.34402468  0.59798714     0.37400
N1265       N  0.66016658  0.34944659  0.59735005    -0.89200
H1266       H  0.62333348  0.38920734  0.54431980     0.18500
H1267       H  0.55533859  0.28906925  0.65297654     0.18500
N1268       N  0.51966273  0.32799814  0.59982042    -0.88300
H1269       H  0.67104852  0.37009152  0.57059439     0.35800
H1270       H  0.67144820  0.32625208  0.59047186     0.40900
H1271       H  0.50732523  0.32892186  0.63294891     0.40600
H1272       H  0.51441406  0.30264337  0.59338297     0.35400
C1273       C  0.53695738  0.35351781  0.98091216    -0.26300
C1274       C  0.55056432  0.38783306  0.98056844    -0.14400
C1275       C  0.57990334  0.40123577  0.94756636     0.36300
C1276       C  0.59477233  0.38006130  0.91667207    -0.25700
C1277       C  0.58164008  0.34524208  0.91792020    -0.15000
C1278       C  0.55213952  0.33202310  0.95066139     0.37400
N1279       N  0.53846661  0.29611469  0.95486218    -0.89200
H1280       H  0.51578630  0.34223219  0.00739768     0.18500
H1281       H  0.61736250  0.39074760  0.89214827     0.18500
N1282       N  0.59647170  0.43538471  0.94616879    -0.88300
H1283       H  0.51645167  0.29080750  0.97977094     0.35800
H1284       H  0.55611277  0.27893683  0.96644980     0.40900
H1285       H  0.58344464  0.44850605  0.97059136     0.40600
H1286       H  0.59577576  0.45118242  0.91443080     0.35400
C1287       C  0.80796706  0.30236551  0.60252799    -0.26300
C1288       C  0.77962546  0.32043930  0.61813824    -0.14400
C1289       C  0.77489642  0.35419985  0.59232236     0.36300
C1290       C  0.79768701  0.36810310  0.55122441    -0.25700
C1291       C  0.82512709  0.34924455  0.53519803    -0.15000
C1292       C  0.83070504  0.31627433  0.56188693     0.37400
N1293       N  0.85871635  0.29570383  0.54825218    -0.89200
H1294       H  0.81246702  0.27675385  0.62179183     0.18500
H1295       H  0.79317114  0.39303271  0.53048420     0.18500
N1296       N  0.74666629  0.37400412  0.60709012    -0.88300
H1297       H  0.87328801  0.29296101  0.57378639     0.35800
H1298       H  0.87462600  0.30918872  0.51868615     0.40900
H1299       H  0.72484608  0.35970237  0.60446796     0.40600
H1300       H  0.74747658  0.39860609  0.58507224     0.35400
C1301       C  0.78722763  0.27714175  0.91875831    -0.26300
C1302       C  0.76078044  0.29832695  0.90800640    -0.14400
C1303       C  0.75690277  0.33067101  0.92380004     0.36300
C1304       C  0.78167959  0.34304070  0.94531249    -0.25700
C1305       C  0.81040968  0.32393360  0.95008177    -0.15000
C1306       C  0.81247927  0.28983638  0.93874800     0.37400
N1307       N  0.84085683  0.26853784  0.94397005    -0.89200
H1308       H  0.78998355  0.25153909  0.90839087     0.18500
H1309       H  0.78015460  0.36929828  0.95406928     0.18500
N1310       N  0.72911676  0.35191820  0.91592136    -0.88300
H1311       H  0.83169939  0.24479104  0.46637330     0.35800
H1312       H  0.85810211  0.28072463  0.45926641     0.40900
H1313       H  0.73887760  0.37683633  0.89676305     0.40600
H1314       H  0.71606554  0.35580302  0.94749787     0.35400
N1315       N  0.84374989  0.86042031  0.98914748    -0.03400
C1316       C  0.84078848  0.84412624  0.45398958    -0.00900
C1317       C  0.86614679  0.85639227  0.41679924    -0.23700
C1318       C  0.88560596  0.88149036  0.42932432    -0.23900
C1319       C  0.87122804  0.88359129  0.97351763    -0.01000
H1320       H  0.86863311  0.84975720  0.38321542     0.12800
H1321       H  0.90653342  0.89824596  0.40754742     0.12900
N1322       N  0.54167410  0.90306449  0.02123163    -0.03400
C1323       C  0.52193582  0.93026296  0.03051577    -0.00900
C1324       C  0.52478191  0.93794481  0.07266253    -0.23700
C1325       C  0.54661907  0.91524664  0.09002717    -0.23900
C1326       C  0.55637594  0.89437647  0.05809308    -0.01000
H1327       H  0.01076539  0.95676209  0.09011559     0.12800
H1328       H  0.55305293  0.91259303  0.12357376     0.12900
N1329       N  0.79187411  0.55990592  0.03616507    -0.03400
C1330       C  0.80960953  0.53001775  0.03801988    -0.00900
C1331       C  0.79929916  0.50723022  0.07966432    -0.23700
C1332       C  0.77566926  0.52380205  0.10517997    -0.23900
C1333       C  0.77202579  0.55599921  0.07815081    -0.01000
H1334       H  0.81101186  0.98324116  0.09223001     0.12800
H1335       H  0.76441549  0.51470771  0.14075944     0.12900
N1336       N  0.93681817  0.93834571  0.49701139    -0.36600
N1337       N  0.96641147  0.00005683  0.01782599    -0.57100
N1338       N  0.90502411  0.53989612  0.01851627    -0.36600
N1339       N  0.87357787  0.97470706  0.50246921    -0.57100
C1340       C  0.96487001  0.92552024  0.51089462     0.27000
C1341       C  0.91293212  0.91120205  0.50771597     0.27000
C1342       C  0.92126936  0.55536619  0.04642726     0.27000
C1343       C  0.87151672  0.54450973  0.03019917     0.27000
C1344       C  0.99428915  0.98376844  0.00216851     0.35600
C1345       C  0.97700514  0.53261631  0.02329389     0.35600
C1346       C  0.86516605  0.94514641  0.48726170     0.35600
C1347       C  0.85041964  0.99841833  0.99283761     0.35600
C1348       C  0.95869286  0.88966464  0.53056109    -0.21900
C1349       C  0.92593864  0.88041207  0.52758682    -0.21900
C1350       C  0.89807333  0.57205998  0.07382802    -0.21900
C1351       C  0.86683462  0.56519485  0.06369350    -0.21900
C1352       C  0.52269253  0.00660809  0.99627888    -0.22900
C1353       C  0.51174409  0.53729751  0.00992557    -0.22900
C1354       C  0.83675187  0.95011430  0.46751168    -0.22900
C1355       C  0.82708014  0.98370351  0.47179614    -0.22900
C1356       C  0.99504430  0.94636224  0.50736385    -0.18300
C1357       C  0.88142461  0.91297939  0.49437727    -0.18300
C1358       C  0.84495325  0.52804747  0.01412862    -0.18300
C1359       C  0.95622526  0.55378574  0.04890206    -0.18300
H1360       H  0.97557518  0.87221182  0.54634553     0.14600
H1361       H  0.91298051  0.85426070  0.53919972     0.14600
H1362       H  0.90293675  0.58691529  0.09942225     0.14600
H1363       H  0.84323355  0.57309045  0.08088909     0.14600
H1364       H  0.54878243  0.00064010  0.98669725     0.12900
H1365       H  0.52791055  0.55997734  0.00997503     0.12900
H1366       H  0.82345596  0.93096683  0.45353203     0.12900
H1367       H  0.80449254  0.99538157  0.46275002     0.12900
H1368       H  0.93491492  0.96347382  0.47770732     0.26200
H1369       H  0.91603771  0.52663388  0.99300728     0.26200
N1370       N  0.99232261  0.58621869  0.09386301    -0.03400
C1371       C  0.99326869  0.58337016  0.13896194    -0.00900
C1372       C  0.96871901  0.55809465  0.16456628    -0.23700
C1373       C  0.95234318  0.54493664  0.13432488    -0.23900
C1374       C  0.96705565  0.56263274  0.09089315    -0.01000
H1375       H  0.96328902  0.55002486  0.20132304     0.12800
H1376       H  0.93195177  0.52433696  0.14305001     0.12900
N1377       N  0.71269384  0.79014402  0.32335006    -0.06100
N1378       N  0.71837713  0.80727709  0.35571262    -0.58200
N1379       N  0.73440456  0.76567349  0.22074532    -0.05800
N1380       N  0.75918208  0.77013091  0.18478368    -0.60300
N1381       N  0.71679648  0.79408600  0.21973519    -0.05400
N1382       N  0.72924218  0.81829699  0.18282618    -0.58200
N1383       N  0.73087046  0.76205463  0.32350605    -0.05000
N1384       N  0.74867645  0.75925195  0.35601263    -0.60700
C1385       C  0.74085071  0.78743752  0.37594181     0.96100
C1386       C  0.75568551  0.80301538  0.16097940     0.95900
N1387       N  0.68861829  0.66001369  0.25516995    -0.06300
N1388       N  0.68622152  0.63887079  0.22598372    -0.58800
N1389       N  0.71992104  0.67965048  0.34246146    -0.04400
N1390       N  0.74288508  0.66916534  0.36739203    -0.60000
N1391       N  0.69225615  0.65851015  0.35607377    -0.06300
N1392       N  0.69611491  0.63295884  0.39026388    -0.59100
N1393       N  0.71593180  0.68177266  0.24116638    -0.04000
N1394       N  0.73278688  0.67556733  0.20210274    -0.60100
Mn1395     Mn  0.72632824  0.72229764  0.28125735     1.18400
C1396       C  0.71379036  0.64875527  0.19292320     0.98200
C1397       C  0.72780609  0.63998397  0.39741088     0.98800
N1398       N  0.63861658  0.80043318  0.23213496    -0.06300
N1399       N  0.64229537  0.81654926  0.18908269    -0.62600
N1400       N  0.60686899  0.78319791  0.34498279    -0.05100
N1401       N  0.58420243  0.79334896  0.37657709    -0.63300
N1402       N  0.63408502  0.80514187  0.33451333    -0.05800
N1403       N  0.63017831  0.83081119  0.35890999    -0.62900
N1404       N  0.61139038  0.77839505  0.24337506    -0.04700
N1405       N  0.59614934  0.77912031  0.20834339    -0.63600
Mn1406     Mn  0.67575512  0.79909034  0.27738032     1.10700
C1407       C  0.61567976  0.80286295  0.17458809     0.99400
C1408       C  0.59891085  0.82298400  0.38550424     0.99500
N1409       N  0.61299340  0.67216176  0.37443567    -0.05800
N1410       N  0.60382227  0.65146589  0.41495359    -0.61200
N1411       N  0.59360167  0.69651774  0.26963327    -0.05200
N1412       N  0.57208965  0.69315606  0.24209666    -0.57900
N1413       N  0.61186461  0.66867980  0.27372821    -0.06500
N1414       N  0.60323819  0.64588248  0.24919456    -0.60800
N1415       N  0.59401163  0.69961804  0.37081643    -0.05500
N1416       N  0.57167138  0.69811383  0.40870908    -0.58000
Mn1417     Mn  0.65119230  0.66377070  0.31583943     1.20200
Mn1418     Mn  0.60035089  0.73971520  0.30751861     1.10100
Cl1419     Cl  0.66342443  0.73124107  0.29580043    -0.85900
C1420       C  0.57802702  0.66798259  0.43604381     0.96400
C1421       C  0.57852507  0.66144566  0.22926040     0.96200
C1422       C  0.55478255  0.60523661  0.21333209    -0.26300
C1423       C  0.55754315  0.64268988  0.20371509    -0.14400
C1424       C  0.54074939  0.66086463  0.16999233     0.36300
C1425       C  0.52078577  0.64110400  0.14796612    -0.25700
C1426       C  0.51704808  0.60367787  0.15917447    -0.15300
C1427       C  0.53478714  0.58562727  0.19164372     0.37400
N1428       N  0.03249531  0.54729454  0.20243663    -0.89200
H1429       H  0.56791288  0.59102860  0.23859222     0.18500
H1430       H  0.50729577  0.65501307  0.12294042     0.18500
N1431       N  0.54456407  0.69909112  0.15738870    -0.88300
H1432       H  0.04684981  0.53810274  0.22717273     0.35800
H1433       H  0.04321203  0.53812399  0.17298394     0.40900
H1434       H  0.53174961  0.70946453  0.18474501     0.40600
H1435       H  0.53263148  0.70795718  0.12988003     0.35400
C1436       C  0.56992536  0.62708068  0.01074431    -0.26300
C1437       C  0.55583222  0.65104248  0.47947502    -0.14400
C1438       C  0.52064071  0.65574425  0.48896814     0.36300
C1439       C  0.50026530  0.63441398  0.02709543    -0.25700
C1440       C  0.51425262  0.60942116  0.05695988    -0.15000
C1441       C  0.54956311  0.60650690  0.04973380     0.37400
N1442       N  0.56420476  0.58089185  0.08026937    -0.89200
H1443       H  0.59685889  0.62369436  0.00408245     0.18500
H1444       H  0.97320452  0.63702866  0.03335959     0.18500
N1445       N  0.50453267  0.68077931  0.45992141    -0.88300
H1446       H  0.59042839  0.58169099  0.06975006     0.35800
H1447       H  0.55476639  0.55546252  0.07860213     0.40900
H1448       H  0.50867715  0.67466110  0.42730145     0.40600
H1449       H  0.01508317  0.70641978  0.45851428     0.35400
C1450       C  0.75526153  0.63948335  0.12544123    -0.26300
C1451       C  0.72467053  0.62869804  0.15596181    -0.14400
C1452       C  0.70646746  0.59725498  0.15284160     0.36300
C1453       C  0.72109067  0.57527979  0.12350148    -0.25700
C1454       C  0.75325598  0.58434570  0.09656478    -0.15000
C1455       C  0.76966720  0.61758525  0.09577400     0.37400
N1456       N  0.80209676  0.62809338  0.06750541    -0.89200
H1457       H  0.76909317  0.66405298  0.12628499     0.18500
H1458       H  0.70808103  0.54996790  0.12371130     0.18500
N1459       N  0.67380838  0.58663001  0.18059412    -0.88300
H1460       H  0.80021132  0.65250146  0.04631224     0.35800
H1461       H  0.81923615  0.63216620  0.08849231     0.40900
H1462       H  0.67503864  0.56149644  0.20053964     0.40600
H1463       H  0.65665583  0.58422395  0.15903816     0.35400
C1464       C  0.77842697  0.62757772  0.43487498    -0.26300
C1465       C  0.74526589  0.61712266  0.43092354    -0.14400
C1466       C  0.72968193  0.58499019  0.45890126     0.36300
C1467       C  0.74687043  0.56539101  0.99080680    -0.25700
C1468       C  0.77907619  0.57695541  0.99641398    -0.15000
C1469       C  0.79542598  0.60770802  0.46714192     0.37400
N1470       N  0.82877521  0.61930022  0.47128718    -0.89200
H1471       H  0.79100815  0.65173803  0.41324483     0.18500
H1472       H  0.73435742  0.54153437  0.01328431     0.18500
N1473       N  0.69627435  0.57257690  0.45579932    -0.88300
H1474       H  0.83714548  0.64292883  0.44799400     0.35800
H1475       H  0.84506741  0.59996741  0.46222528     0.40900
H1476       H  0.67940207  0.58999303  0.46898476     0.40600
H1477       H  0.68948483  0.54767786  0.97686947     0.35400
C1478       C  0.60906744  0.86633846  0.06687748    -0.26300
C1479       C  0.57415760  0.86230441  0.06940755    -0.14400
C1480       C  0.55541198  0.83253741  0.09784947     0.36300
C1481       C  0.57090524  0.81003720  0.12844706    -0.25700
C1482       C  0.60449712  0.81793443  0.13188405    -0.15000
C1483       C  0.62467341  0.84406998  0.09800811     0.37400
N1484       N  0.66017698  0.84956516  0.09741417    -0.89200
H1485       H  0.62330631  0.88925918  0.04436929     0.18500
H1486       H  0.55543424  0.78896629  0.15289004     0.18500
N1487       N  0.51971694  0.82785074  0.09976381    -0.88300
H1488       H  0.67103859  0.87024041  0.07068314     0.35800
H1489       H  0.67151446  0.82640376  0.09052189     0.40900
H1490       H  0.50736610  0.82874203  0.13289558     0.40600
H1491       H  0.51451203  0.80249405  0.09330070     0.35400
C1492       C  0.53693502  0.85358720  0.48091109    -0.26300
C1493       C  0.55056814  0.88788906  0.48058376    -0.14400
C1494       C  0.57994963  0.90125039  0.44763679     0.36300
C1495       C  0.59482058  0.88005942  0.41676656    -0.25700
C1496       C  0.58165620  0.84525761  0.41799175    -0.15000
C1497       C  0.55212692  0.83206997  0.45069486     0.37400
N1498       N  0.53843658  0.79616803  0.45489820    -0.89200
H1499       H  0.51574046  0.84232230  0.50737037     0.18500
H1500       H  0.61743907  0.89071788  0.39228247     0.18500
N1501       N  0.59656238  0.93536838  0.44628456    -0.88300
H1502       H  0.51640450  0.79088132  0.47978175     0.35800
H1503       H  0.55606155  0.77898037  0.46652294     0.40900
H1504       H  0.58352488  0.94851379  0.47067153     0.40600
H1505       H  0.59593701  0.95117654  0.41452876     0.35400
C1506       C  0.80794395  0.80237435  0.10255403    -0.26300
C1507       C  0.77963452  0.82048191  0.11819120    -0.14400
C1508       C  0.77495825  0.85427885  0.09241723     0.36300
C1509       C  0.79775217  0.86817040  0.05131288    -0.25700
C1510       C  0.82514460  0.84926516  0.03524329    -0.15000
C1511       C  0.83068807  0.81627379  0.06191608     0.37400
N1512       N  0.85867219  0.79567353  0.04826760    -0.89200
H1513       H  0.81241348  0.77674129  0.12179323     0.18500
H1514       H  0.79326882  0.89312405  0.03059461     0.18500
N1515       N  0.74677977  0.87413439  0.10723328    -0.88300
H1516       H  0.87324074  0.79289084  0.07380849     0.35800
H1517       H  0.87459668  0.80915865  0.01871594     0.40900
H1518       H  0.72492444  0.85990130  0.10459126     0.40600
H1519       H  0.74763706  0.89876189  0.08525529     0.35400
C1520       C  0.78722863  0.77718947  0.41874045    -0.26300
C1521       C  0.76076801  0.79835821  0.40800407    -0.14400
C1522       C  0.75690200  0.83072150  0.42375368     0.36300
C1523       C  0.78170789  0.84312996  0.44518888    -0.25700
C1524       C  0.81044002  0.82402688  0.44995788    -0.15000
C1525       C  0.81249759  0.78991129  0.43867867     0.37400
N1526       N  0.84086906  0.76860929  0.44392757    -0.89200
H1527       H  0.78997376  0.75157217  0.40841077     0.18500
H1528       H  0.78018783  0.86939724  0.45391657     0.18500
N1529       N  0.72908902  0.85194032  0.41592142    -0.88300
H1530       H  0.83169017  0.74469934  0.96636832     0.35800
H1531       H  0.85807516  0.78063380  0.95935362     0.40900
H1532       H  0.73881971  0.87685438  0.39672430     0.40600
H1533       H  0.71607095  0.85583930  0.44751106     0.35400
N1534       N  0.84376688  0.86043305  0.48913015    -0.03400
C1535       C  0.84076475  0.84404804  0.95406280    -0.00900
C1536       C  0.86608862  0.85630602  0.91682618    -0.23700
C1537       C  0.88552905  0.88147067  0.92925383    -0.23900
C1538       C  0.87127998  0.88356486  0.47359640    -0.01000
H1539       H  0.86855548  0.84962463  0.88326875     0.12800
H1540       H  0.90643315  0.89822704  0.90742289     0.12900
N1541       N  0.54167617  0.90312144  0.52124578    -0.03400
C1542       C  0.52199200  0.93036864  0.53049771    -0.00900
C1543       C  0.52492126  0.93810930  0.57258979    -0.23700
C1544       C  0.54674964  0.91539617  0.58995190    -0.23900
C1545       C  0.55642105  0.89446015  0.55807081    -0.01000
H1546       H  0.01095416  0.95696714  0.59002426     0.12800
H1547       H  0.55322628  0.91277426  0.62347144     0.12900
N1548       N  0.79177665  0.55986894  0.53619720    -0.03400
C1549       C  0.80951701  0.52998224  0.53817280    -0.00900
C1550       C  0.79918537  0.50726391  0.57986560    -0.23700
C1551       C  0.77552913  0.52387761  0.60528289    -0.23900
C1552       C  0.77189418  0.55602896  0.57814872    -0.01000
H1553       H  0.81089591  0.98329921  0.59252301     0.12800
H1554       H  0.76425637  0.51484920  0.64086791     0.12900
N1555       N  0.93682865  0.93833344  0.99688438    -0.36600
N1556       N  0.96637572  0.00010070  0.51788746    -0.57100
N1557       N  0.90494295  0.53988187  0.51862054    -0.36600
N1558       N  0.87363914  0.97476904  0.00227038    -0.57100
C1559       C  0.96486464  0.92547797  0.01077935     0.27000
C1560       C  0.91292165  0.91121007  0.00757938     0.27000
C1561       C  0.92120478  0.55538005  0.54649228     0.27000
C1562       C  0.87143153  0.54445407  0.53036341     0.27000
C1563       C  0.99425867  0.98383471  0.50219886     0.35600
C1564       C  0.97694797  0.53269899  0.52324482     0.35600
C1565       C  0.86520152  0.94521091  0.98707636     0.35600
C1566       C  0.85032788  0.99832756  0.49306501     0.35600
C1567       C  0.95866104  0.88962038  0.03042807    -0.21900
C1568       C  0.92590204  0.88040155  0.02744685    -0.21900
C1569       C  0.89800886  0.57203844  0.57394040    -0.21900
C1570       C  0.86675713  0.56513104  0.56386616    -0.21900
C1571       C  0.52264453  0.00672036  0.49618790    -0.22900
C1572       C  0.51167804  0.53742804  0.50977044    -0.22900
C1573       C  0.83680190  0.95020746  0.96730169    -0.22900
C1574       C  0.82716869  0.98381587  0.97155266    -0.22900
C1575       C  0.99504342  0.94629411  0.00730624    -0.18300
C1576       C  0.88141394  0.91301886  0.99424462    -0.18300
C1577       C  0.84486426  0.52797527  0.51431838    -0.18300
C1578       C  0.95617845  0.55385249  0.54888707    -0.18300
H1579       H  0.97552801  0.87214569  0.04621251     0.14600
H1580       H  0.91292318  0.85426035  0.03905512     0.14600
H1581       H  0.90288342  0.58690107  0.59952252     0.14600
H1582       H  0.84315479  0.57299525  0.58110187     0.14600
H1583       H  0.54873702  0.00078344  0.48654166     0.12900
H1584       H  0.52782391  0.56015726  0.50969723     0.12900
H1585       H  0.82348403  0.93106327  0.95334278     0.12900
H1586       H  0.80459238  0.99551479  0.96249699     0.12900
H1587       H  0.93494785  0.96347396  0.97758967     0.26200
H1588       H  0.91594920  0.52663369  0.49309595     0.26200
N1589       N  0.99232217  0.58623405  0.59384823    -0.03400
C1590       C  0.99330717  0.58333199  0.63894266    -0.00900
C1591       C  0.96877123  0.55804087  0.66454164    -0.23700
C1592       C  0.95236004  0.54492975  0.63430059    -0.23900
C1593       C  0.96703798  0.56266912  0.59087499    -0.01000
H1594       H  0.96337140  0.54993290  0.70129400     0.12800
H1595       H  0.93197088  0.52432774  0.64302075     0.12900
N1596       N  0.71271794  0.79013900  0.82331559    -0.06100
N1597       N  0.71840542  0.80727285  0.85567760    -0.58200
N1598       N  0.73442529  0.76564916  0.72071914    -0.05800
N1599       N  0.75920002  0.77010224  0.68475475    -0.60300
N1600       N  0.71681018  0.79405636  0.71970166    -0.05400
N1601       N  0.72924732  0.81826005  0.68278311    -0.58200
N1602       N  0.73090319  0.76205605  0.82346255    -0.05000
N1603       N  0.74871880  0.75925808  0.85595746    -0.60700
C1604       C  0.74089008  0.78743828  0.87589340     0.96100
C1605       C  0.75569162  0.80297827  0.66093904     0.95900
N1606       N  0.68864734  0.65999666  0.75517367    -0.06300
N1607       N  0.68621843  0.63889310  0.72595200    -0.58800
N1608       N  0.71995471  0.67966195  0.84245386    -0.04400
N1609       N  0.74291366  0.66920791  0.86740586    -0.60000
N1610       N  0.69229288  0.65851848  0.85607975    -0.06300
N1611       N  0.69614851  0.63299520  0.89030195    -0.59100
N1612       N  0.71595480  0.68176289  0.74115813    -0.04000
N1613       N  0.73277340  0.67560238  0.70205010    -0.60100
Mn1614     Mn  0.72635589  0.72228937  0.78123666     1.18400
C1615       C  0.71376009  0.64881027  0.69285706     0.98200
C1616       C  0.72783411  0.64004218  0.89745314     0.98800
N1617       N  0.63862211  0.80038555  0.73210218    -0.06300
N1618       N  0.64227814  0.81651906  0.68905983    -0.62600
N1619       N  0.60687868  0.78316969  0.84494007    -0.05100
N1620       N  0.58420087  0.79333186  0.87651074    -0.63300
N1621       N  0.63409064  0.80512050  0.83446664    -0.05800
N1622       N  0.63016894  0.83080556  0.85883756    -0.62900
N1623       N  0.61139852  0.77834334  0.74334997    -0.04700
N1624       N  0.59613474  0.77908517  0.70833547    -0.63600
Mn1625     Mn  0.67576749  0.79906466  0.77734436     1.10700
C1626       C  0.61565070  0.80284062  0.67458042     0.99400
C1627       C  0.59889739  0.82297975  0.88542073     0.99500
N1628       N  0.61301845  0.67212813  0.87443631    -0.05800
N1629       N  0.60382674  0.65141813  0.91494131    -0.61200
N1630       N  0.59363236  0.69645933  0.76963457    -0.05200
N1631       N  0.57211940  0.69308502  0.74210488    -0.57900
N1632       N  0.61189694  0.66862348  0.77374229    -0.06500
N1633       N  0.60327019  0.64581401  0.74922375    -0.60800
N1634       N  0.59402903  0.69957805  0.87080548    -0.05500
N1635       N  0.57166154  0.69805483  0.90867689    -0.58000
Mn1636     Mn  0.65122718  0.66374412  0.81584816     1.20200
Mn1637     Mn  0.60037041  0.73967031  0.80749951     1.10100
Cl1638     Cl  0.66344728  0.73121574  0.79578663    -0.85900
C1639       C  0.57801161  0.66792079  0.93601087     0.96400
C1640       C  0.57855472  0.66136904  0.72928635     0.96200
C1641       C  0.55486386  0.60516264  0.71327474    -0.26300
C1642       C  0.55758649  0.64261773  0.70372030    -0.14400
C1643       C  0.54075882  0.66080396  0.67004375     0.36300
C1644       C  0.52080079  0.64105294  0.64800297    -0.25700
C1645       C  0.51709662  0.60362498  0.65915411    -0.15300
C1646       C  0.53486922  0.58556229  0.69157380     0.37400
N1647       N  0.03260778  0.54722836  0.70230614    -0.89200
H1648       H  0.56802005  0.59094628  0.73849864     0.18500
H1649       H  0.50728260  0.65497042  0.62301723     0.18500
N1650       N  0.54452696  0.69903547  0.65750744    -0.88300
H1651       H  0.04698532  0.53802577  0.72701483     0.35800
H1652       H  0.04331580  0.53809403  0.67282664     0.40900
H1653       H  0.53169692  0.70936292  0.68489149     0.40600
H1654       H  0.53258277  0.70791300  0.63001203     0.35400
C1655       C  0.56993155  0.62708225  0.51073312    -0.26300
C1656       C  0.55581308  0.65098157  0.97943693    -0.14400
C1657       C  0.52061164  0.65563607  0.98888689     0.36300
C1658       C  0.50028606  0.63450246  0.52715498    -0.25700
C1659       C  0.51425786  0.60944400  0.55695777    -0.15000
C1660       C  0.54956263  0.60648610  0.54969901     0.37400
N1661       N  0.56418790  0.58080452  0.58017240    -0.89200
H1662       H  0.59685812  0.62366081  0.50404356     0.18500
H1663       H  0.97323142  0.63715466  0.53344996     0.18500
N1664       N  0.50448709  0.68059971  0.95977336    -0.88300
H1665       H  0.59040962  0.58158005  0.56963736     0.35800
H1666       H  0.55471952  0.55540250  0.57844392     0.40900
H1667       H  0.50867652  0.67444351  0.92717450     0.40600
H1668       H  0.01499074  0.70626693  0.95833122     0.35400
C1669       C  0.75522438  0.63953506  0.62537555    -0.26300
C1670       C  0.72460142  0.62879617  0.65584260    -0.14400
C1671       C  0.70633721  0.59741533  0.65264172     0.36300
C1672       C  0.72093822  0.57542803  0.62330446    -0.25700
C1673       C  0.75314168  0.58442528  0.59645548    -0.15000
C1674       C  0.76961059  0.61762331  0.59571676     0.37400
N1675       N  0.80208145  0.62806089  0.56752911    -0.89200
H1676       H  0.76910254  0.66406212  0.62627639     0.18500
H1677       H  0.70788754  0.55014827  0.62347069     0.18500
N1678       N  0.67363977  0.58685949  0.68031928    -0.88300
H1679       H  0.80027221  0.65248962  0.54633229     0.35800
H1680       H  0.81919558  0.63207306  0.58857437     0.40900
H1681       H  0.67479349  0.56170346  0.70025220     0.40600
H1682       H  0.65651089  0.58452684  0.65871033     0.35400
C1683       C  0.77846799  0.62764711  0.93489305    -0.26300
C1684       C  0.74529372  0.61720320  0.93098292    -0.14400
C1685       C  0.72969679  0.58509640  0.95900929     0.36300
C1686       C  0.74684356  0.56528713  0.49071887    -0.25700
C1687       C  0.77902639  0.57687481  0.49638459    -0.15000
C1688       C  0.79547861  0.60777705  0.96714558     0.37400
N1689       N  0.82884382  0.61935537  0.97124458    -0.89200
H1690       H  0.79105429  0.65179296  0.91323294     0.18500
H1691       H  0.73433238  0.54142075  0.51317676     0.18500
N1692       N  0.69626543  0.57270898  0.95597352    -0.88300
H1693       H  0.83720973  0.64298047  0.94794445     0.35800
H1694       H  0.84512060  0.60001564  0.96216182     0.40900
H1695       H  0.67942455  0.59016094  0.96914516     0.40600
H1696       H  0.68950806  0.54752496  0.47665540     0.35400
C1697       C  0.60906471  0.86631919  0.56685834    -0.26300
C1698       C  0.57414826  0.86235369  0.56941991    -0.14400
C1699       C  0.55536374  0.83262581  0.59789574     0.36300
C1700       C  0.57083367  0.81010492  0.62850392    -0.25700
C1701       C  0.60444811  0.81793533  0.63189811    -0.15000
C1702       C  0.62464995  0.84402454  0.59798706     0.37400
N1703       N  0.66016660  0.84944556  0.59735061    -0.89200
H1704       H  0.62333373  0.88920748  0.54431970     0.18500
H1705       H  0.55533887  0.78906920  0.65297593     0.18500
N1706       N  0.51966283  0.82799848  0.59982069    -0.88300
H1707       H  0.67104923  0.87009218  0.57059399     0.35800
H1708       H  0.67144759  0.82625232  0.59047240     0.40900
H1709       H  0.50732564  0.82892206  0.63294870     0.40600
H1710       H  0.51441405  0.80264327  0.59338278     0.35400
C1711       C  0.53695737  0.85351777  0.98091212    -0.26300
C1712       C  0.55056431  0.88783306  0.98056844    -0.14400
C1713       C  0.57990326  0.90123591  0.94756638     0.36300
C1714       C  0.59477229  0.88006148  0.91667212    -0.25700
C1715       C  0.58164014  0.84524211  0.91792029    -0.15000
C1716       C  0.55213951  0.83202310  0.95066136     0.37400
N1717       N  0.53846668  0.79611464  0.95486220    -0.89200
H1718       H  0.51578663  0.84223195  0.00739810     0.18500
H1719       H  0.61736253  0.89074777  0.89214844     0.18500
N1720       N  0.59647124  0.93538513  0.94616885    -0.88300
H1721       H  0.51645182  0.79080745  0.97977119     0.35800
H1722       H  0.55611283  0.77893692  0.96645000     0.40900
H1723       H  0.58344404  0.94850613  0.97059080     0.40600
H1724       H  0.59577508  0.95118281  0.91443079     0.35400
C1725       C  0.80796708  0.80236558  0.60252801    -0.26300
C1726       C  0.77962548  0.82043935  0.61813827    -0.14400
C1727       C  0.77489640  0.85419990  0.59232236     0.36300
C1728       C  0.79768693  0.86810322  0.55122433    -0.25700
C1729       C  0.82512701  0.84924462  0.53519787    -0.15000
C1730       C  0.83070503  0.81627443  0.56188689     0.37400
N1731       N  0.85871637  0.79570394  0.54825212    -0.89200
H1732       H  0.81246708  0.77675390  0.62179185     0.18500
H1733       H  0.79317071  0.89303265  0.53048402     0.18500
N1734       N  0.74666626  0.87400412  0.60709022    -0.88300
H1735       H  0.87328809  0.79296112  0.57378628     0.35800
H1736       H  0.87462595  0.80918880  0.51868604     0.40900
H1737       H  0.72484603  0.85970237  0.60446807     0.40600
H1738       H  0.74747649  0.89860610  0.58507247     0.35400
C1739       C  0.78722766  0.77714177  0.91875816    -0.26300
C1740       C  0.76078047  0.79832686  0.90800625    -0.14400
C1741       C  0.75690266  0.83067079  0.92380002     0.36300
C1742       C  0.78167955  0.84304063  0.94531229    -0.25700
C1743       C  0.81040967  0.82393365  0.95008179    -0.15000
C1744       C  0.81247930  0.78983649  0.93874784     0.37400
N1745       N  0.84085695  0.76853818  0.94396975    -0.89200
H1746       H  0.78998373  0.75153923  0.90839044     0.18500
H1747       H  0.78015450  0.86929837  0.95406861     0.18500
N1748       N  0.72911636  0.85191763  0.91592180    -0.88300
H1749       H  0.83169867  0.74479201  0.46637363     0.35800
H1750       H  0.85810256  0.78072450  0.45926765     0.40900
H1751       H  0.73887730  0.87683656  0.89676257     0.40600
H1752       H  0.71606569  0.85580273  0.94749774     0.35400
loop_ 
_geom_bond_atom_site_label_1 
_geom_bond_atom_site_label_2 
_geom_bond_distance 
_geom_bond_site_symmetry_2 
_ccdc_geom_bond_type 
N1            C5   1.354       .  A
N1          C221   1.350       .  A
N1          C196   1.446   1_556  S
C2          N220   1.350       .  A
C2            C3   1.380       .  A
C2          C210   1.459       .  S
C3            C4   1.368       .  A
C3            H6   1.082       .  S
C4          C224   1.382       .  A
C4            H7   1.082       .  S
C5          C223   1.382       .  A
C5          C262   1.466       .  S
N8           C12   1.351       .  A
N8            C9   1.367       .  A
N8          C398   1.451   1_554  S
C9           C10   1.386       .  A
C9         C1137   1.484   1_455  S
C10          C11   1.360       .  A
C10         H889   1.083       .  S
C11          C12   1.376       .  A
C11          H14   1.083       .  S
C12         C165   1.457       .  S
H13         C886   1.083       .  S
N15          C19   1.358       .  A
N15          C16   1.364       .  A
N15         C154   1.450   1_554  S
C16          C17   1.385       .  A
C16          C44   1.489       .  S
C17          C18   1.363       .  A
C17         H458   1.083   1_545  S
C18          C19   1.377       .  A
C18          H21   1.082       .  S
C19         C140   1.475       .  S
H20         C455   1.083       .  S
N22          C27   1.346       .  A
N22          C26   1.351       .  A
N22          H54   1.043       .  S
N23          C30   1.354       .  A
N23         C469   1.351       .  A
N24          C29   1.358       .  A
N24          C28   1.360       .  A
N24          H55   1.042   1_554  S
N25          C32   1.351       .  A
N25         C252   1.352       .  A
C26          C34   1.387       .  A
C26          C42   1.409       .  A
C27          C43   1.399       .  A
C27          C35   1.384       .  A
C28          C36   1.387       .  A
C28          C45   1.426       .  A
C29          C44   1.426       .  A
C29          C37   1.388       .  A
C30         C261   1.414       .  A
C30         C914   1.383   1_554  A
C31         N461   1.351       .  A
C31          C45   1.413       .  A
C31         C915   1.382       .  A
C32          C40   1.386       .  A
C32          C43   1.411       .  A
C33         N244   1.352   1_556  A
C33         C260   1.386       .  A
C33         C482   1.406   1_556  A
C34          C35   1.378       .  A
C34          H46   1.079       .  S
C35          H47   1.082       .  S
C36          C37   1.376       .  A
C36          H48   1.082       .  S
C37          H49   1.079       .  S
C38         C906   1.383   1_456  A
C38         C477   1.373   1_556  A
C38          H50   1.082       .  S
C39         C907   1.382   1_455  A
C39         C476   1.373   1_554  A
C39          H51   1.068       .  S
C40          C41   1.375       .  A
C40          H52   1.082       .  S
C41         C252   1.386       .  A
C41          H53   1.083       .  S
C42         C249   1.414       .  A
C42        C1104   1.484       .  S
C43         C224   1.466       .  S
C44         C471   1.406   1_544  A
C45          C60   1.508       .  S
N56          C60   1.365       .  A
N56          C57   1.360       .  A
N56        C1002   1.435       .  S
C57          C58   1.382       .  A
C57         C988   1.494       .  S
C58          C59   1.376       .  A
C58          H61   1.082       .  S
C59          C60   1.385       .  A
C59          H62   1.082       .  S
N63          N64   1.323       .  A
N63          N69   1.318       .  A
N63         Mn92   2.208       .  S
N64          C71   1.358       .  A
N65          N67   1.314       .  A
N65          N66   1.323       .  A
N65         Mn81   2.208       .  S
N66          C72   1.356       .  A
N67          N68   1.326       .  A
N67         Mn92   2.222       .  S
N68          C72   1.357       .  A
N69          N70   1.311       .  A
N69         Mn81   2.181       .  S
N70          C71   1.347       .  A
C71         C207   1.473       .  S
C72         C193   1.504       .  S
N73          N79   1.316       .  A
N73          N74   1.316       .  A
N73        Mn103   2.191       .  S
N74          C82   1.350       .  A
N75          N76   1.323       .  A
N75          N77   1.313       .  A
N75         Mn81   2.209       .  S
N76          C83   1.355       .  A
N77          N78   1.324       .  A
N77        Mn103   2.218       .  S
N78          C83   1.359       .  A
N79          N80   1.322       .  A
N79         Mn81   2.209       .  S
N80          C82   1.358       .  A
Mn81       Cl105   2.538       .  S
C82         C137   1.481       .  S
C83         C151   1.504       .  S
N84          N85   1.320       .  A
N84          N90   1.317       .  A
N84         Mn92   2.199       .  S
N85          C93   1.354       .  A
N86          N88   1.315       .  A
N86          N87   1.322       .  A
N86        Mn104   2.211       .  S
N87          C94   1.354       .  A
N88          N89   1.329       .  A
N88         Mn92   2.238       .  S
N89          C94   1.361       .  A
N90          N91   1.316       .  A
N90        Mn104   2.186       .  S
N91          C93   1.350       .  A
Mn92       Cl105   2.565       .  S
C93         C168   1.472       .  S
C94         C182   1.509       .  S
N95          N96   1.319       .  A
N95         N101   1.317       .  A
N95        Mn103   2.212       .  S
N96         C106   1.356       .  A
N97          N98   1.325       .  A
N97          N99   1.312       .  A
N97        Mn104   2.212       .  S
N98         C107   1.357       .  A
N99         N100   1.320       .  A
N99        Mn103   2.198       .  S
N100        C107   1.353       .  A
N101        N102   1.319       .  A
N101       Mn104   2.199       .  S
N102        C106   1.352       .  A
Mn103      Cl105   2.551       .  S
Mn104      Cl105   2.541       .  S
C106        C123   1.480       .  S
C107        C109   1.492       .  S
C108        C109   1.405       .  A
C108        C113   1.405       .  A
C108        H115   1.083       .  S
C109        C110   1.416       .  A
C110        C111   1.414       .  A
C110        N117   1.438       .  S
C111        C112   1.406       .  A
C111        H116   1.083       .  S
C112        C113   1.412       .  A
C112        C933   1.494   1_455  S
C113        N990   1.438       .  S
N114        C989   1.438       .  S
N114        H118   1.045       .  S
N114        H119   1.046       .  S
N117        H120   1.045       .  S
N117        H121   1.046       .  S
C122        C127   1.403       .  A
C122        C342   1.404   1_554  A
C122        H129   1.084       .  S
C123        C124   1.419       .  A
C123        C341   1.404       .  A
C124        C344   1.397       .  A
C124        N131   1.432       .  S
C125        C126   1.397       .  A
C125        C343   1.397   1_554  A
C125       H1006   1.084   1_455  S
C126        N932   1.435   1_455  S
C126        C127   1.411       .  A
C127        N128   1.438       .  S
N128        H132   1.045       .  S
N128        H133   1.046       .  S
H130       C1001   1.084       .  S
N131        H134   1.044       .  S
N131       H1011   1.046       .  S
H135       N1007   1.046       .  S
C136        C137   1.403       .  A
C136        C141   1.401       .  A
C136        H143   1.084       .  S
C137        C138   1.415       .  A
C138        C139   1.400       .  A
C138        N145   1.433       .  S
C139        C140   1.400       .  A
C139        H144   1.084       .  S
C140        C141   1.408       .  A
C141        N142   1.431       .  S
N142        H146   1.046       .  S
N142        H147   1.045       .  S
N145        H148   1.046       .  S
N145        H149   1.045       .  S
C150        C151   1.414       .  A
C150        C155   1.416       .  A
C150        H157   1.083       .  S
C151        C152   1.417       .  A
C152        C372   1.408       .  A
C152        N159   1.438       .  S
C153        C154   1.406       .  A
C153        C371   1.408       .  A
C153        H158   1.083   1_556  S
C154        C374   1.406       .  A
C155        C373   1.406       .  A
C155        N156   1.435       .  S
N156        H160   1.046       .  S
N156        H161   1.045       .  S
N159        H162   1.045       .  S
N159        H382   1.046       .  S
H163        N378   1.046       .  S
C164        C165   1.397       .  A
C164        C169   1.402       .  A
C164        H171   1.084       .  S
C165        C166   1.403       .  A
C166        C167   1.393       .  A
C166        N173   1.433       .  S
C167        C168   1.403       .  A
C167        H172   1.084       .  S
C168        C169   1.412       .  A
C169        N170   1.436       .  S
N170        H174   1.046       .  S
N170        H175   1.046       .  S
N173        H176   1.046       .  S
N173        H177   1.045       .  S
C178        C179   1.403       .  A
C178        C183   1.413       .  A
C178        H185   1.080       .  S
C179        N227   1.451       .  S
C179        C180   1.420       .  A
C180        C181   1.413       .  A
C180        N187   1.437       .  S
C181        C182   1.408       .  A
C181        H186   1.083       .  S
C182        C183   1.419       .  A
C183        N184   1.438       .  S
N184        H188   1.045       .  S
N184        H189   1.046       .  S
N187        H190   1.043       .  S
N187        H191   1.045       .  S
C192        C193   1.407       .  A
C192        C197   1.404       .  A
C192        H199   1.083       .  S
C193        C194   1.420       .  A
C194        C195   1.415       .  A
C194        N201   1.436       .  S
C195        C196   1.401       .  A
C195        H200   1.082       .  S
C196        C197   1.417       .  A
C197        N198   1.438       .  S
N198        H202   1.045       .  S
N198        H203   1.043       .  S
N201        H204   1.043       .  S
N201        H205   1.046       .  S
C206        C207   1.407       .  A
C206        C211   1.391       .  A
C206        H213   1.084       .  S
C207        C208   1.408       .  A
C208        C209   1.400       .  A
C208        N215   1.432       .  S
C209        C210   1.403       .  A
C209        H214   1.084       .  S
C210        C211   1.408       .  A
C211        N212   1.439       .  S
N212        H435   1.046       .  S
N212        H436   1.042       .  S
N215        H218   1.046       .  S
N215        H219   1.046       .  S
H216        N431   1.046       .  S
H217        N431   1.042       .  S
N220        C224   1.354       .  A
N220        C415   1.446       .  S
C221        C222   1.380       .  A
C221        C429   1.459       .  S
C222        C223   1.368       .  A
C222        H225   1.082       .  S
C223        H226   1.082       .  S
N227        C231   1.351       .  A
N227        C228   1.367       .  A
C228        C229   1.386       .  A
C228        C918   1.484   1_455  S
C229        C230   1.361       .  A
C229       H1108   1.083       .  S
C230        C231   1.376       .  A
C230        H233   1.083       .  S
C231        C384   1.457       .  S
H232       C1105   1.083       .  S
N234        C238   1.358       .  A
N234        C235   1.364       .  A
N234        C373   1.450       .  S
C235        C236   1.385       .  A
C235        C263   1.489       .  S
C236        C237   1.363       .  A
C236        H677   1.083   1_545  S
C237        C238   1.377       .  A
C237        H240   1.082       .  S
C238        C359   1.475       .  S
H239        C674   1.083       .  S
N241        C246   1.346   1_556  A
N241        C245   1.350   1_556  A
N241        H273   1.043       .  S
N242        C249   1.354       .  A
N242        C688   1.351       .  A
N243        C248   1.358       .  A
N243        C247   1.360       .  A
N243        H274   1.042       .  S
N244        C251   1.351   1_554  A
C245        C253   1.387       .  A
C245        C261   1.409       .  A
C246        C262   1.399   1_554  A
C246        C254   1.384       .  A
C247        C255   1.387       .  A
C247        C264   1.426       .  A
C248        C263   1.426       .  A
C248        C256   1.388       .  A
C249       C1133   1.383       .  A
C250        N680   1.351       .  A
C250        C264   1.413       .  A
C250       C1134   1.382       .  A
C251        C259   1.386       .  A
C251        C262   1.411       .  A
C252        C701   1.406       .  A
C253        C254   1.378       .  A
C253        H265   1.079       .  S
C254        H266   1.082       .  S
C255        C256   1.376       .  A
C255        H267   1.082       .  S
C256        H268   1.079       .  S
C257       C1125   1.383   1_455  A
C257        C696   1.373       .  A
C257        H269   1.082       .  S
C258       C1126   1.382   1_455  A
C258        C695   1.373       .  A
C258        H270   1.068       .  S
C259        C260   1.375       .  A
C259        H271   1.082       .  S
C260        H272   1.083       .  S
C261        C885   1.484       .  S
C263        C690   1.406   1_545  A
C264        C279   1.508       .  S
N275        C279   1.365       .  A
N275        C276   1.360       .  A
N275       C1221   1.435       .  S
C276        C277   1.382       .  A
C276       C1207   1.494       .  S
C277        C278   1.376       .  A
C277        H280   1.082       .  S
C278        C279   1.385       .  A
C278        H281   1.082       .  S
N282        N283   1.323       .  A
N282        N288   1.318       .  A
N282       Mn311   2.209       .  S
N283        C290   1.358       .  A
N284        N286   1.314       .  A
N284        N285   1.323       .  A
N284       Mn300   2.208       .  S
N285        C291   1.356       .  A
N286        N287   1.325       .  A
N286       Mn311   2.222       .  S
N287        C291   1.357       .  A
N288        N289   1.311       .  A
N288       Mn300   2.181       .  S
N289        C290   1.347       .  A
C290        C426   1.473       .  S
C291        C412   1.504       .  S
N292        N298   1.316       .  A
N292        N293   1.316       .  A
N292       Mn322   2.191       .  S
N293        C301   1.350       .  A
N294        N295   1.323       .  A
N294        N296   1.313       .  A
N294       Mn300   2.208       .  S
N295        C302   1.354       .  A
N296        N297   1.324       .  A
N296       Mn322   2.218       .  S
N297        C302   1.359       .  A
N298        N299   1.322       .  A
N298       Mn300   2.208       .  S
N299        C301   1.358       .  A
Mn300      Cl324   2.538       .  S
C301        C356   1.481       .  S
C302        C370   1.504       .  S
N303        N304   1.320       .  A
N303        N309   1.317       .  A
N303       Mn311   2.200       .  S
N304        C312   1.354       .  A
N305        N307   1.315       .  A
N305        N306   1.322       .  A
N305       Mn323   2.211       .  S
N306        C313   1.354       .  A
N307        N308   1.329       .  A
N307       Mn311   2.238       .  S
N308        C313   1.361       .  A
N309        N310   1.316       .  A
N309       Mn323   2.186       .  S
N310        C312   1.350       .  A
Mn311      Cl324   2.565       .  S
C312        C387   1.472       .  S
C313        C401   1.508       .  S
N314        N315   1.319       .  A
N314        N320   1.317       .  A
N314       Mn322   2.212       .  S
N315        C325   1.355       .  A
N316        N317   1.325       .  A
N316        N318   1.312       .  A
N316       Mn323   2.212       .  S
N317        C326   1.357       .  A
N318        N319   1.320       .  A
N318       Mn322   2.198       .  S
N319        C326   1.353       .  A
N320        N321   1.319       .  A
N320       Mn323   2.199       .  S
N321        C325   1.352       .  A
Mn322      Cl324   2.551       .  S
Mn323      Cl324   2.541       .  S
C325        C342   1.480       .  S
C326        C328   1.492       .  S
C327        C328   1.405       .  A
C327        C332   1.405       .  A
C327        H334   1.083       .  S
C328        C329   1.416       .  A
C329        C330   1.414       .  A
C329        N336   1.438       .  S
C330        C331   1.406       .  A
C330        H335   1.083       .  S
C331        C332   1.412       .  A
C331       C1152   1.494   1_455  S
C332       N1209   1.438       .  S
N333       C1208   1.438       .  S
N333        H337   1.045       .  S
N333        H338   1.045       .  S
N336        H339   1.045       .  S
N336        H340   1.046       .  S
C341        C346   1.403       .  A
C341        H348   1.084       .  S
C342        C343   1.419       .  A
C343        N350   1.432       .  S
C344        C345   1.397       .  A
C344       H1225   1.084   1_455  S
C345       N1151   1.435   1_455  S
C345        C346   1.411       .  A
C346        N347   1.438       .  S
N347        H351   1.045       .  S
N347        H352   1.046       .  S
H349       C1220   1.084       .  S
N350        H353   1.044       .  S
N350       H1230   1.047       .  S
H354       N1226   1.047       .  S
C355        C356   1.403       .  A
C355        C360   1.401       .  A
C355        H362   1.084       .  S
C356        C357   1.415       .  A
C357        C358   1.400       .  A
C357        N364   1.433       .  S
C358        C359   1.399       .  A
C358        H363   1.084       .  S
C359        C360   1.408       .  A
C360        N361   1.431       .  S
N361        H365   1.046       .  S
N361        H366   1.045       .  S
N364        H367   1.046       .  S
N364        H368   1.045       .  S
C369        C370   1.414       .  A
C369        C374   1.416       .  A
C369        H376   1.083       .  S
C370        C371   1.417       .  A
C371        N378   1.438       .  S
C372        C373   1.406       .  A
C372        H377   1.083       .  S
C374        N375   1.435       .  S
N375        H379   1.046       .  S
N375        H380   1.045       .  S
N378        H381   1.045       .  S
C383        C384   1.397       .  A
C383        C388   1.402       .  A
C383        H390   1.084       .  S
C384        C385   1.403       .  A
C385        C386   1.393       .  A
C385        N392   1.433       .  S
C386        C387   1.403       .  A
C386        H391   1.084       .  S
C387        C388   1.412       .  A
C388        N389   1.435       .  S
N389        H393   1.046       .  S
N389        H394   1.046       .  S
N392        H395   1.046       .  S
N392        H396   1.045       .  S
C397        C398   1.403       .  A
C397        C402   1.413       .  A
C397        H404   1.080   1_556  S
C398        C399   1.420       .  A
C399        C400   1.413       .  A
C399        N406   1.437       .  S
C400        C401   1.408       .  A
C400        H405   1.083       .  S
C401        C402   1.419       .  A
C402        N403   1.438       .  S
N403        H407   1.045       .  S
N403        H408   1.046       .  S
N406        H409   1.043       .  S
N406        H410   1.045       .  S
C411        C412   1.407       .  A
C411        C416   1.404       .  A
C411        H418   1.083       .  S
C412        C413   1.420       .  A
C413        C414   1.415       .  A
C413        N420   1.436       .  S
C414        C415   1.401       .  A
C414        H419   1.082       .  S
C415        C416   1.416       .  A
C416        N417   1.438       .  S
N417        H421   1.045       .  S
N417        H422   1.043       .  S
N420        H423   1.043       .  S
N420        H424   1.046       .  S
C425        C426   1.407       .  A
C425        C430   1.391       .  A
C425        H432   1.084       .  S
C426        C427   1.408       .  A
C427        C428   1.400       .  A
C427        N434   1.432       .  S
C428        C429   1.403       .  A
C428        H433   1.084       .  S
C429        C430   1.408       .  A
C430        N431   1.439       .  S
N434        H437   1.046       .  S
N434        H438   1.046       .  S
N439        C443   1.354       .  A
N439        C659   1.350       .  A
N439        C634   1.446   1_556  S
C440        N658   1.350       .  A
C440        C441   1.380       .  A
C440        C648   1.459       .  S
C441        C442   1.368       .  A
C441        H444   1.082       .  S
C442        C662   1.382       .  A
C442        H445   1.082       .  S
C443        C661   1.382       .  A
C443        C700   1.466       .  S
N446        C450   1.351       .  A
N446        C447   1.367       .  A
N446        C836   1.451   1_554  S
C447        C448   1.386       .  A
C447       C1575   1.484   1_455  S
C448        C449   1.360       .  A
C448       H1327   1.083       .  S
C449        C450   1.376       .  A
C449        H452   1.083       .  S
C450        C603   1.457       .  S
H451       C1324   1.083       .  S
N453        C457   1.358       .  A
N453        C454   1.364       .  A
N453        C592   1.450   1_554  S
C454        C455   1.385       .  A
C454        C482   1.489       .  S
C455        C456   1.363       .  A
C456        C457   1.377       .  A
C456        H459   1.082       .  S
C457        C578   1.475       .  S
N460        C465   1.346       .  A
N460        C464   1.351       .  A
N460        H492   1.043       .  S
N461        C468   1.354   1_545  A
N462        C467   1.358       .  A
N462        C466   1.360       .  A
N462        H493   1.042   1_554  S
N463        C470   1.351       .  A
N463        C690   1.352       .  A
C464        C472   1.387       .  A
C464        C480   1.409       .  A
C465        C481   1.399       .  A
C465        C473   1.384       .  A
C466        C474   1.387       .  A
C466        C483   1.426       .  A
C467        C482   1.426       .  A
C467        C475   1.388       .  A
C468        C699   1.414       .  A
C468       C1352   1.383   1_564  A
C469        C483   1.413       .  A
C469       C1353   1.382       .  A
C470        C478   1.386       .  A
C470        C481   1.411       .  A
C471        N682   1.352   1_556  A
C471        C698   1.386       .  A
C472        C473   1.378       .  A
C472        H484   1.079       .  S
C473        H485   1.082       .  S
C474        C475   1.376       .  A
C474        H486   1.082       .  S
C475        H487   1.079       .  S
C476       C1344   1.383   1_446  A
C476        H488   1.082       .  S
C477       C1345   1.382   1_455  A
C477        H489   1.068       .  S
C478        C479   1.375       .  A
C478        H490   1.082       .  S
C479        C690   1.386       .  A
C479        H491   1.083       .  S
C480        C687   1.414       .  A
C480       C1542   1.484       .  S
C481        C662   1.466       .  S
C483        C498   1.508       .  S
N494        C498   1.365       .  A
N494        C495   1.360       .  A
N494       C1440   1.435       .  S
C495        C496   1.382       .  A
C495       C1426   1.494       .  S
C496        C497   1.376       .  A
C496        H499   1.082       .  S
C497        C498   1.385       .  A
C497        H500   1.082       .  S
N501        N502   1.323       .  A
N501        N507   1.318       .  A
N501       Mn530   2.208       .  S
N502        C509   1.358       .  A
N503        N505   1.314       .  A
N503        N504   1.323       .  A
N503       Mn519   2.208       .  S
N504        C510   1.356       .  A
N505        N506   1.326       .  A
N505       Mn530   2.222       .  S
N506        C510   1.357       .  A
N507        N508   1.311       .  A
N507       Mn519   2.181       .  S
N508        C509   1.347       .  A
C509        C645   1.473       .  S
C510        C631   1.504       .  S
N511        N517   1.316       .  A
N511        N512   1.316       .  A
N511       Mn541   2.191       .  S
N512        C520   1.350       .  A
N513        N514   1.323       .  A
N513        N515   1.313       .  A
N513       Mn519   2.209       .  S
N514        C521   1.355       .  A
N515        N516   1.324       .  A
N515       Mn541   2.218       .  S
N516        C521   1.359       .  A
N517        N518   1.322       .  A
N517       Mn519   2.209       .  S
N518        C520   1.358       .  A
Mn519      Cl543   2.538       .  S
C520        C575   1.481       .  S
C521        C589   1.504       .  S
N522        N523   1.320       .  A
N522        N528   1.317       .  A
N522       Mn530   2.199       .  S
N523        C531   1.354       .  A
N524        N526   1.315       .  A
N524        N525   1.322       .  A
N524       Mn542   2.211       .  S
N525        C532   1.354       .  A
N526        N527   1.329       .  A
N526       Mn530   2.238       .  S
N527        C532   1.361       .  A
N528        N529   1.316       .  A
N528       Mn542   2.186       .  S
N529        C531   1.350       .  A
Mn530      Cl543   2.565       .  S
C531        C606   1.472       .  S
C532        C620   1.509       .  S
N533        N534   1.319       .  A
N533        N539   1.317       .  A
N533       Mn541   2.212       .  S
N534        C544   1.356       .  A
N535        N536   1.325       .  A
N535        N537   1.312       .  A
N535       Mn542   2.212       .  S
N536        C545   1.357       .  A
N537        N538   1.320       .  A
N537       Mn541   2.198       .  S
N538        C545   1.353       .  A
N539        N540   1.319       .  A
N539       Mn542   2.199       .  S
N540        C544   1.352       .  A
Mn541      Cl543   2.551       .  S
Mn542      Cl543   2.541       .  S
C544        C561   1.480       .  S
C545        C547   1.492       .  S
C546        C547   1.405       .  A
C546        C551   1.405       .  A
C546        H553   1.083       .  S
C547        C548   1.416       .  A
C548        C549   1.414       .  A
C548        N555   1.438       .  S
C549        C550   1.406       .  A
C549        H554   1.083       .  S
C550        C551   1.412       .  A
C550       C1371   1.494   1_455  S
C551       N1428   1.438       .  S
N552       C1427   1.438       .  S
N552        H556   1.045       .  S
N552        H557   1.046       .  S
N555        H558   1.045       .  S
N555        H559   1.046       .  S
C560        C780   1.404   1_554  A
C560        C565   1.403       .  A
C560        H567   1.084       .  S
C561        C779   1.404       .  A
C561        C562   1.419       .  A
C562        C782   1.397       .  A
C562        N569   1.432       .  S
C563        C781   1.397   1_554  A
C563        C564   1.397       .  A
C563       H1444   1.084   1_455  S
C564       N1370   1.435   1_455  S
C564        C565   1.411       .  A
C565        N566   1.438       .  S
N566        H570   1.045       .  S
N566        H571   1.046       .  S
H568       C1439   1.084       .  S
N569        H572   1.044       .  S
N569       H1449   1.046       .  S
H573       N1445   1.046       .  S
C574        C575   1.403       .  A
C574        C579   1.401       .  A
C574        H581   1.084       .  S
C575        C576   1.415       .  A
C576        C577   1.400       .  A
C576        N583   1.433       .  S
C577        C578   1.400       .  A
C577        H582   1.084       .  S
C578        C579   1.408       .  A
C579        N580   1.431       .  S
N580        H584   1.046       .  S
N580        H585   1.045       .  S
N583        H586   1.046       .  S
N583        H587   1.045       .  S
C588        C589   1.414       .  A
C588        C593   1.416       .  A
C588        H595   1.083       .  S
C589        C590   1.417       .  A
C590        C810   1.409       .  A
C590        N597   1.438       .  S
C591        C809   1.408       .  A
C591        C592   1.406       .  A
C591        H596   1.083   1_556  S
C592        C812   1.406       .  A
C593        C811   1.406       .  A
C593        N594   1.435       .  S
N594        H598   1.046       .  S
N594        H599   1.045       .  S
N597        H600   1.045       .  S
N597        H820   1.046       .  S
H601        N816   1.046       .  S
C602        C603   1.397       .  A
C602        C607   1.402       .  A
C602        H609   1.084       .  S
C603        C604   1.403       .  A
C604        C605   1.393       .  A
C604        N611   1.433       .  S
C605        C606   1.403       .  A
C605        H610   1.084       .  S
C606        C607   1.412       .  A
C607        N608   1.436       .  S
N608        H612   1.046       .  S
N608        H613   1.046       .  S
N611        H614   1.046       .  S
N611        H615   1.045       .  S
C616        C617   1.403       .  A
C616        C621   1.413       .  A
C616        H623   1.080       .  S
C617        N665   1.451       .  S
C617        C618   1.420       .  A
C618        C619   1.413       .  A
C618        N625   1.437       .  S
C619        C620   1.408       .  A
C619        H624   1.083       .  S
C620        C621   1.419       .  A
C621        N622   1.438       .  S
N622        H626   1.046       .  S
N622        H627   1.046       .  S
N625        H628   1.043       .  S
N625        H629   1.045       .  S
C630        C631   1.407       .  A
C630        C635   1.404       .  A
C630        H637   1.083       .  S
C631        C632   1.420       .  A
C632        C633   1.415       .  A
C632        N639   1.436       .  S
C633        C634   1.401       .  A
C633        H638   1.082       .  S
C634        C635   1.417       .  A
C635        N636   1.438       .  S
N636        H640   1.045       .  S
N636        H641   1.043       .  S
N639        H642   1.043       .  S
N639        H643   1.046       .  S
C644        C645   1.407       .  A
C644        C649   1.391       .  A
C644        H651   1.084       .  S
C645        C646   1.408       .  A
C646        C647   1.400       .  A
C646        N653   1.432       .  S
C647        C648   1.403       .  A
C647        H652   1.084       .  S
C648        C649   1.408       .  A
C649        N650   1.439       .  S
N650        H873   1.046       .  S
N650        H874   1.042       .  S
N653        H656   1.046       .  S
N653        H657   1.046       .  S
H654        N869   1.046       .  S
H655        N869   1.042       .  S
N658        C662   1.354       .  A
N658        C853   1.446       .  S
C659        C660   1.380       .  A
C659        C867   1.459       .  S
C660        C661   1.368       .  A
C660        H663   1.082       .  S
C661        H664   1.082       .  S
N665        C669   1.351       .  A
N665        C666   1.367       .  A
C666        C667   1.386       .  A
C666       C1356   1.484   1_455  S
C667        C668   1.360       .  A
C667       H1546   1.083       .  S
C668        C669   1.376       .  A
C668        H671   1.083       .  S
C669        C822   1.457       .  S
H670       C1543   1.083       .  S
N672        C676   1.358       .  A
N672        C673   1.364       .  A
N672        C811   1.450       .  S
C673        C674   1.385       .  A
C673        C701   1.489       .  S
C674        C675   1.363       .  A
C675        C676   1.377       .  A
C675        H678   1.082       .  S
C676        C797   1.475       .  S
N679        C684   1.346   1_556  A
N679        C683   1.350   1_556  A
N679        H711   1.043       .  S
N680        C687   1.354   1_545  A
N681        C686   1.358       .  A
N681        C685   1.360       .  A
N681        H712   1.042       .  S
N682        C689   1.351   1_554  A
C683        C691   1.387       .  A
C683        C699   1.409       .  A
C684        C700   1.399   1_554  A
C684        C692   1.384       .  A
C685        C693   1.387       .  A
C685        C702   1.426       .  A
C686        C701   1.426       .  A
C686        C694   1.388       .  A
C687       C1571   1.383   1_565  A
C688        C702   1.413       .  A
C688       C1572   1.382       .  A
C689        C697   1.386       .  A
C689        C700   1.411       .  A
C691        C692   1.378       .  A
C691        H703   1.079       .  S
C692        H704   1.082       .  S
C693        C694   1.376       .  A
C693        H705   1.082       .  S
C694        H706   1.079       .  S
C695       C1563   1.383   1_445  A
C695        H707   1.082       .  S
C696       C1564   1.382   1_455  A
C696        H708   1.068       .  S
C697        C698   1.375       .  A
C697        H709   1.082       .  S
C698        H710   1.083       .  S
C699       C1323   1.484       .  S
C702        C717   1.508       .  S
N713        C717   1.365       .  A
N713        C714   1.360       .  A
N713       C1659   1.435       .  S
C714        C715   1.382       .  A
C714       C1645   1.494       .  S
C715        C716   1.376       .  A
C715        H718   1.082       .  S
C716        C717   1.385       .  A
C716        H719   1.082       .  S
N720        N721   1.323       .  A
N720        N726   1.318       .  A
N720       Mn749   2.209       .  S
N721        C728   1.358       .  A
N722        N724   1.314       .  A
N722        N723   1.323       .  A
N722       Mn738   2.208       .  S
N723        C729   1.356       .  A
N724        N725   1.325       .  A
N724       Mn749   2.222       .  S
N725        C729   1.357       .  A
N726        N727   1.311       .  A
N726       Mn738   2.181       .  S
N727        C728   1.347       .  A
C728        C864   1.473       .  S
C729        C850   1.504       .  S
N730        N736   1.316       .  A
N730        N731   1.316       .  A
N730       Mn760   2.191       .  S
N731        C739   1.350       .  A
N732        N733   1.323       .  A
N732        N734   1.313       .  A
N732       Mn738   2.208       .  S
N733        C740   1.354       .  A
N734        N735   1.324       .  A
N734       Mn760   2.218       .  S
N735        C740   1.359       .  A
N736        N737   1.322       .  A
N736       Mn738   2.208       .  S
N737        C739   1.358       .  A
Mn738      Cl762   2.538       .  S
C739        C794   1.481       .  S
C740        C808   1.504       .  S
N741        N742   1.320       .  A
N741        N747   1.317       .  A
N741       Mn749   2.200       .  S
N742        C750   1.354       .  A
N743        N745   1.315       .  A
N743        N744   1.322       .  A
N743       Mn761   2.211       .  S
N744        C751   1.354       .  A
N745        N746   1.329       .  A
N745       Mn749   2.238       .  S
N746        C751   1.361       .  A
N747        N748   1.316       .  A
N747       Mn761   2.186       .  S
N748        C750   1.350       .  A
Mn749      Cl762   2.565       .  S
C750        C825   1.472       .  S
C751        C839   1.509       .  S
N752        N753   1.319       .  A
N752        N758   1.317       .  A
N752       Mn760   2.212       .  S
N753        C763   1.355       .  A
N754        N755   1.325       .  A
N754        N756   1.312       .  A
N754       Mn761   2.212       .  S
N755        C764   1.357       .  A
N756        N757   1.320       .  A
N756       Mn760   2.198       .  S
N757        C764   1.353       .  A
N758        N759   1.319       .  A
N758       Mn761   2.199       .  S
N759        C763   1.352       .  A
Mn760      Cl762   2.551       .  S
Mn761      Cl762   2.541       .  S
C763        C780   1.480       .  S
C764        C766   1.492       .  S
C765        C766   1.405       .  A
C765        C770   1.405       .  A
C765        H772   1.083       .  S
C766        C767   1.416       .  A
C767        C768   1.414       .  A
C767        N774   1.438       .  S
C768        C769   1.406       .  A
C768        H773   1.083       .  S
C769        C770   1.412       .  A
C769       C1590   1.494   1_455  S
C770       N1647   1.438       .  S
N771       C1646   1.438       .  S
N771        H775   1.046       .  S
N771        H776   1.045       .  S
N774        H777   1.045       .  S
N774        H778   1.046       .  S
C779        C784   1.403       .  A
C779        H786   1.084       .  S
C780        C781   1.419       .  A
C781        N788   1.432       .  S
C782        C783   1.397       .  A
C782       H1663   1.084   1_455  S
C783       N1589   1.435   1_455  S
C783        C784   1.411       .  A
C784        N785   1.438       .  S
N785        H789   1.045       .  S
N785        H790   1.046       .  S
H787       C1658   1.084       .  S
N788        H791   1.044       .  S
N788       H1668   1.047       .  S
H792       N1664   1.047       .  S
C793        C794   1.403       .  A
C793        C798   1.401       .  A
C793        H800   1.084       .  S
C794        C795   1.415       .  A
C795        C796   1.400       .  A
C795        N802   1.433       .  S
C796        C797   1.399       .  A
C796        H801   1.084       .  S
C797        C798   1.408       .  A
C798        N799   1.431       .  S
N799        H803   1.046       .  S
N799        H804   1.045       .  S
N802        H805   1.046       .  S
N802        H806   1.045       .  S
C807        C808   1.414       .  A
C807        C812   1.416       .  A
C807        H814   1.083       .  S
C808        C809   1.417       .  A
C809        N816   1.438       .  S
C810        C811   1.406       .  A
C810        H815   1.083       .  S
C812        N813   1.435       .  S
N813        H817   1.046       .  S
N813        H818   1.045       .  S
N816        H819   1.045       .  S
C821        C822   1.397       .  A
C821        C826   1.402       .  A
C821        H828   1.084       .  S
C822        C823   1.403       .  A
C823        C824   1.393       .  A
C823        N830   1.433       .  S
C824        C825   1.403       .  A
C824        H829   1.084       .  S
C825        C826   1.412       .  A
C826        N827   1.435       .  S
N827        H831   1.046       .  S
N827        H832   1.046       .  S
N830        H833   1.046       .  S
N830        H834   1.045       .  S
C835        C836   1.403       .  A
C835        C840   1.413       .  A
C835        H842   1.080   1_556  S
C836        C837   1.420       .  A
C837        C838   1.413       .  A
C837        N844   1.437       .  S
C838        C839   1.408       .  A
C838        H843   1.083       .  S
C839        C840   1.419       .  A
C840        N841   1.438       .  S
N841        H845   1.045       .  S
N841        H846   1.046       .  S
N844        H847   1.043       .  S
N844        H848   1.045       .  S
C849        C850   1.407       .  A
C849        C854   1.404       .  A
C849        H856   1.083       .  S
C850        C851   1.420       .  A
C851        C852   1.415       .  A
C851        N858   1.436       .  S
C852        C853   1.401       .  A
C852        H857   1.082       .  S
C853        C854   1.416       .  A
C854        N855   1.438       .  S
N855        H859   1.045       .  S
N855        H860   1.043       .  S
N858        H861   1.043       .  S
N858        H862   1.046       .  S
C863        C864   1.407       .  A
C863        C868   1.391       .  A
C863        H870   1.084       .  S
C864        C865   1.408       .  A
C865        C866   1.400       .  A
C865        N872   1.432       .  S
C866        C867   1.403       .  A
C866        H871   1.084       .  S
C867        C868   1.408       .  A
C868        N869   1.439       .  S
N872        H875   1.046       .  S
N872        H876   1.045       .  S
N877        C881   1.354       .  A
N877       C1097   1.350       .  A
N877       C1072   1.446   1_556  S
C878       N1096   1.350       .  A
C878        C879   1.380       .  A
C878       C1086   1.459       .  S
C879        C880   1.368       .  A
C879        H882   1.082       .  S
C880       C1100   1.382       .  A
C880        H883   1.082       .  S
C881       C1099   1.382       .  A
C881       C1138   1.466       .  S
N884        C888   1.351       .  A
N884        C885   1.367       .  A
N884       C1274   1.451   1_554  S
C885        C886   1.386       .  A
C886        C887   1.360       .  A
C887        C888   1.376       .  A
C887        H890   1.083       .  S
C888       C1041   1.457       .  S
N891        C895   1.358       .  A
N891        C892   1.364       .  A
N891       C1030   1.450   1_554  S
C892        C893   1.385       .  A
C892        C920   1.489       .  S
C893        C894   1.363       .  A
C893       H1334   1.083   1_545  S
C894        C895   1.377       .  A
C894        H897   1.082       .  S
C895       C1016   1.475       .  S
H896       C1331   1.083       .  S
N898        C903   1.346       .  A
N898        C902   1.351       .  A
N898        H930   1.043       .  S
N899        C906   1.354       .  A
N899       C1345   1.351       .  A
N900        C905   1.358       .  A
N900        C904   1.360       .  A
N900        H931   1.042   1_554  S
N901        C908   1.351       .  A
N901       C1128   1.352       .  A
C902        C910   1.387       .  A
C902        C918   1.409       .  A
C903        C919   1.399       .  A
C903        C911   1.384       .  A
C904        C912   1.387       .  A
C904        C921   1.426       .  A
C905        C920   1.426       .  A
C905        C913   1.388       .  A
C906       C1137   1.414       .  A
C907       N1337   1.351       .  A
C907        C921   1.413       .  A
C908        C916   1.386       .  A
C908        C919   1.411       .  A
C909       N1120   1.352   1_556  A
C909       C1136   1.386       .  A
C909       C1358   1.406   1_556  A
C910        C911   1.378       .  A
C910        H922   1.079       .  S
C911        H923   1.082       .  S
C912        C913   1.376       .  A
C912        H924   1.082       .  S
C913        H925   1.079       .  S
C914       C1353   1.373   1_556  A
C914        H926   1.082       .  S
C915       C1352   1.373   1_554  A
C915        H927   1.068       .  S
C916        C917   1.375       .  A
C916        H928   1.082       .  S
C917       C1128   1.386       .  A
C917        H929   1.083       .  S
C918       C1125   1.414       .  A
C919       C1100   1.466       .  S
C920       C1347   1.406   1_544  A
C921        C936   1.508       .  S
N932        C936   1.365       .  A
N932        C933   1.360       .  A
C933        C934   1.382       .  A
C934        C935   1.376       .  A
C934        H937   1.082       .  S
C935        C936   1.385       .  A
C935        H938   1.082       .  S
N939        N940   1.323       .  A
N939        N945   1.318       .  A
N939       Mn968   2.208       .  S
N940        C947   1.358       .  A
N941        N943   1.314       .  A
N941        N942   1.323       .  A
N941       Mn957   2.208       .  S
N942        C948   1.356       .  A
N943        N944   1.326       .  A
N943       Mn968   2.222       .  S
N944        C948   1.357       .  A
N945        N946   1.311       .  A
N945       Mn957   2.181       .  S
N946        C947   1.347       .  A
C947       C1083   1.473       .  S
C948       C1069   1.504       .  S
N949        N955   1.316       .  A
N949        N950   1.316       .  A
N949       Mn979   2.191       .  S
N950        C958   1.350       .  A
N951        N952   1.323       .  A
N951        N953   1.313       .  A
N951       Mn957   2.209       .  S
N952        C959   1.355       .  A
N953        N954   1.324       .  A
N953       Mn979   2.218       .  S
N954        C959   1.359       .  A
N955        N956   1.322       .  A
N955       Mn957   2.209       .  S
N956        C958   1.358       .  A
Mn957      Cl981   2.538       .  S
C958       C1013   1.481       .  S
C959       C1027   1.504       .  S
N960        N961   1.320       .  A
N960        N966   1.317       .  A
N960       Mn968   2.199       .  S
N961        C969   1.354       .  A
N962        N964   1.315       .  A
N962        N963   1.322       .  A
N962       Mn980   2.211       .  S
N963        C970   1.354       .  A
N964        N965   1.329       .  A
N964       Mn968   2.238       .  S
N965        C970   1.361       .  A
N966        N967   1.316       .  A
N966       Mn980   2.186       .  S
N967        C969   1.350       .  A
Mn968      Cl981   2.565       .  S
C969       C1044   1.472       .  S
C970       C1058   1.509       .  S
N971        N972   1.319       .  A
N971        N977   1.317       .  A
N971       Mn979   2.212       .  S
N972        C982   1.356       .  A
N973        N974   1.325       .  A
N973        N975   1.312       .  A
N973       Mn980   2.212       .  S
N974        C983   1.357       .  A
N975        N976   1.320       .  A
N975       Mn979   2.198       .  S
N976        C983   1.353       .  A
N977        N978   1.319       .  A
N977       Mn980   2.199       .  S
N978        C982   1.352       .  A
Mn979      Cl981   2.551       .  S
Mn980      Cl981   2.541       .  S
C982        C999   1.480       .  S
C983        C985   1.492       .  S
C984        C985   1.405       .  A
C984        C989   1.405       .  A
C984        H991   1.083       .  S
C985        C986   1.416       .  A
C986        C987   1.414       .  A
C986        N993   1.438       .  S
C987        C988   1.406       .  A
C987        H992   1.083       .  S
C988        C989   1.412       .  A
N990        H994   1.045       .  S
N990        H995   1.046       .  S
N993        H996   1.045       .  S
N993        H997   1.046       .  S
C998       C1218   1.404   1_554  A
C998       C1003   1.403       .  A
C998       H1005   1.084       .  S
C999       C1217   1.404       .  A
C999       C1000   1.419       .  A
C1000      C1220   1.397       .  A
C1000      N1007   1.432       .  S
C1001      C1219   1.397   1_554  A
C1001      C1002   1.397       .  A
C1002      C1003   1.411       .  A
C1003      N1004   1.438       .  S
N1004      H1008   1.045       .  S
N1004      H1009   1.046       .  S
N1007      H1010   1.044       .  S
C1012      C1013   1.403       .  A
C1012      C1017   1.401       .  A
C1012      H1019   1.084       .  S
C1013      C1014   1.415       .  A
C1014      C1015   1.400       .  A
C1014      N1021   1.433       .  S
C1015      C1016   1.400       .  A
C1015      H1020   1.084       .  S
C1016      C1017   1.408       .  A
C1017      N1018   1.431       .  S
N1018      H1022   1.046       .  S
N1018      H1023   1.045       .  S
N1021      H1024   1.046       .  S
N1021      H1025   1.045       .  S
C1026      C1027   1.414       .  A
C1026      C1031   1.416       .  A
C1026      H1033   1.083       .  S
C1027      C1028   1.417       .  A
C1028      C1248   1.408       .  A
C1028      N1035   1.438       .  S
C1029      C1247   1.408       .  A
C1029      C1030   1.406       .  A
C1029      H1034   1.083   1_556  S
C1030      C1250   1.406       .  A
C1031      C1249   1.406       .  A
C1031      N1032   1.435       .  S
N1032      H1036   1.046       .  S
N1032      H1037   1.045       .  S
N1035      H1038   1.045       .  S
N1035      H1258   1.046       .  S
H1039      N1254   1.046       .  S
C1040      C1041   1.397       .  A
C1040      C1045   1.402       .  A
C1040      H1047   1.084       .  S
C1041      C1042   1.403       .  A
C1042      C1043   1.393       .  A
C1042      N1049   1.433       .  S
C1043      C1044   1.403       .  A
C1043      H1048   1.084       .  S
C1044      C1045   1.412       .  A
C1045      N1046   1.436       .  S
N1046      H1050   1.046       .  S
N1046      H1051   1.046       .  S
N1049      H1052   1.046       .  S
N1049      H1053   1.045       .  S
C1054      C1055   1.403       .  A
C1054      C1059   1.413       .  A
C1054      H1061   1.080       .  S
C1055      N1103   1.451       .  S
C1055      C1056   1.420       .  A
C1056      C1057   1.413       .  A
C1056      N1063   1.437       .  S
C1057      C1058   1.408       .  A
C1057      H1062   1.083       .  S
C1058      C1059   1.419       .  A
C1059      N1060   1.438       .  S
N1060      H1064   1.045       .  S
N1060      H1065   1.046       .  S
N1063      H1066   1.043       .  S
N1063      H1067   1.045       .  S
C1068      C1069   1.407       .  A
C1068      C1073   1.404       .  A
C1068      H1075   1.083       .  S
C1069      C1070   1.420       .  A
C1070      C1071   1.415       .  A
C1070      N1077   1.436       .  S
C1071      C1072   1.401       .  A
C1071      H1076   1.082       .  S
C1072      C1073   1.417       .  A
C1073      N1074   1.438       .  S
N1074      H1078   1.045       .  S
N1074      H1079   1.043       .  S
N1077      H1080   1.043       .  S
N1077      H1081   1.046       .  S
C1082      C1083   1.407       .  A
C1082      C1087   1.391       .  A
C1082      H1089   1.084       .  S
C1083      C1084   1.408       .  A
C1084      C1085   1.400       .  A
C1084      N1091   1.432       .  S
C1085      C1086   1.403       .  A
C1085      H1090   1.084       .  S
C1086      C1087   1.408       .  A
C1087      N1088   1.439       .  S
N1088      H1311   1.046       .  S
N1088      H1312   1.042       .  S
N1091      H1094   1.046       .  S
N1091      H1095   1.046       .  S
H1092      N1307   1.046       .  S
H1093      N1307   1.042       .  S
N1096      C1100   1.354       .  A
N1096      C1291   1.446       .  S
C1097      C1098   1.380       .  A
C1097      C1305   1.459       .  S
C1098      C1099   1.368       .  A
C1098      H1101   1.082       .  S
C1099      H1102   1.082       .  S
N1103      C1107   1.351       .  A
N1103      C1104   1.367       .  A
C1104      C1105   1.386       .  A
C1105      C1106   1.361       .  A
C1106      C1107   1.376       .  A
C1106      H1109   1.083       .  S
C1107      C1260   1.457       .  S
N1110      C1114   1.358       .  A
N1110      C1111   1.364       .  A
N1110      C1249   1.450       .  S
C1111      C1112   1.385       .  A
C1111      C1139   1.489       .  S
C1112      C1113   1.363       .  A
C1112      H1553   1.083   1_545  S
C1113      C1114   1.377       .  A
C1113      H1116   1.082       .  S
C1114      C1235   1.475       .  S
H1115      C1550   1.083       .  S
N1117      C1122   1.346   1_556  A
N1117      C1121   1.350   1_556  A
N1117      H1149   1.043       .  S
N1118      C1125   1.354       .  A
N1118      C1564   1.351       .  A
N1119      C1124   1.358       .  A
N1119      C1123   1.360       .  A
N1119      H1150   1.042       .  S
N1120      C1127   1.351   1_554  A
C1121      C1129   1.387       .  A
C1121      C1137   1.409       .  A
C1122      C1138   1.399   1_554  A
C1122      C1130   1.384       .  A
C1123      C1131   1.387       .  A
C1123      C1140   1.426       .  A
C1124      C1139   1.426       .  A
C1124      C1132   1.388       .  A
C1126      N1556   1.351       .  A
C1126      C1140   1.413       .  A
C1127      C1135   1.386       .  A
C1127      C1138   1.411       .  A
C1128      C1577   1.406       .  A
C1129      C1130   1.378       .  A
C1129      H1141   1.079       .  S
C1130      H1142   1.082       .  S
C1131      C1132   1.376       .  A
C1131      H1143   1.082       .  S
C1132      H1144   1.079       .  S
C1133      C1572   1.373       .  A
C1133      H1145   1.082       .  S
C1134      C1571   1.373       .  A
C1134      H1146   1.068       .  S
C1135      C1136   1.375       .  A
C1135      H1147   1.082       .  S
C1136      H1148   1.083       .  S
C1139      C1566   1.406   1_545  A
C1140      C1155   1.508       .  S
N1151      C1155   1.365       .  A
N1151      C1152   1.360       .  A
C1152      C1153   1.382       .  A
C1153      C1154   1.376       .  A
C1153      H1156   1.082       .  S
C1154      C1155   1.385       .  A
C1154      H1157   1.082       .  S
N1158      N1159   1.323       .  A
N1158      N1164   1.318       .  A
N1158     Mn1187   2.209       .  S
N1159      C1166   1.358       .  A
N1160      N1162   1.314       .  A
N1160      N1161   1.323       .  A
N1160     Mn1176   2.208       .  S
N1161      C1167   1.356       .  A
N1162      N1163   1.325       .  A
N1162     Mn1187   2.222       .  S
N1163      C1167   1.357       .  A
N1164      N1165   1.311       .  A
N1164     Mn1176   2.181       .  S
N1165      C1166   1.347       .  A
C1166      C1302   1.473       .  S
C1167      C1288   1.504       .  S
N1168      N1174   1.316       .  A
N1168      N1169   1.316       .  A
N1168     Mn1198   2.191       .  S
N1169      C1177   1.350       .  A
N1170      N1171   1.323       .  A
N1170      N1172   1.313       .  A
N1170     Mn1176   2.208       .  S
N1171      C1178   1.354       .  A
N1172      N1173   1.324       .  A
N1172     Mn1198   2.218       .  S
N1173      C1178   1.359       .  A
N1174      N1175   1.322       .  A
N1174     Mn1176   2.208       .  S
N1175      C1177   1.358       .  A
Mn1176    Cl1200   2.538       .  S
C1177      C1232   1.481       .  S
C1178      C1246   1.504       .  S
N1179      N1180   1.320       .  A
N1179      N1185   1.317       .  A
N1179     Mn1187   2.200       .  S
N1180      C1188   1.354       .  A
N1181      N1183   1.315       .  A
N1181      N1182   1.322       .  A
N1181     Mn1199   2.211       .  S
N1182      C1189   1.354       .  A
N1183      N1184   1.329       .  A
N1183     Mn1187   2.238       .  S
N1184      C1189   1.361       .  A
N1185      N1186   1.316       .  A
N1185     Mn1199   2.186       .  S
N1186      C1188   1.350       .  A
Mn1187    Cl1200   2.565       .  S
C1188      C1263   1.472       .  S
C1189      C1277   1.508       .  S
N1190      N1191   1.319       .  A
N1190      N1196   1.317       .  A
N1190     Mn1198   2.212       .  S
N1191      C1201   1.355       .  A
N1192      N1193   1.325       .  A
N1192      N1194   1.312       .  A
N1192     Mn1199   2.212       .  S
N1193      C1202   1.357       .  A
N1194      N1195   1.320       .  A
N1194     Mn1198   2.198       .  S
N1195      C1202   1.353       .  A
N1196      N1197   1.319       .  A
N1196     Mn1199   2.199       .  S
N1197      C1201   1.352       .  A
Mn1198    Cl1200   2.551       .  S
Mn1199    Cl1200   2.541       .  S
C1201      C1218   1.480       .  S
C1202      C1204   1.492       .  S
C1203      C1204   1.405       .  A
C1203      C1208   1.405       .  A
C1203      H1210   1.083       .  S
C1204      C1205   1.416       .  A
C1205      C1206   1.414       .  A
C1205      N1212   1.438       .  S
C1206      C1207   1.406       .  A
C1206      H1211   1.083       .  S
C1207      C1208   1.412       .  A
N1209      H1213   1.045       .  S
N1209      H1214   1.045       .  S
N1212      H1215   1.045       .  S
N1212      H1216   1.046       .  S
C1217      C1222   1.403       .  A
C1217      H1224   1.084       .  S
C1218      C1219   1.419       .  A
C1219      N1226   1.432       .  S
C1220      C1221   1.397       .  A
C1221      C1222   1.411       .  A
C1222      N1223   1.438       .  S
N1223      H1227   1.045       .  S
N1223      H1228   1.046       .  S
N1226      H1229   1.044       .  S
C1231      C1232   1.403       .  A
C1231      C1236   1.401       .  A
C1231      H1238   1.084       .  S
C1232      C1233   1.415       .  A
C1233      C1234   1.400       .  A
C1233      N1240   1.433       .  S
C1234      C1235   1.399       .  A
C1234      H1239   1.084       .  S
C1235      C1236   1.408       .  A
C1236      N1237   1.431       .  S
N1237      H1241   1.046       .  S
N1237      H1242   1.045       .  S
N1240      H1243   1.046       .  S
N1240      H1244   1.045       .  S
C1245      C1246   1.414       .  A
C1245      C1250   1.416       .  A
C1245      H1252   1.083       .  S
C1246      C1247   1.417       .  A
C1247      N1254   1.438       .  S
C1248      C1249   1.406       .  A
C1248      H1253   1.083       .  S
C1250      N1251   1.435       .  S
N1251      H1255   1.046       .  S
N1251      H1256   1.045       .  S
N1254      H1257   1.045       .  S
C1259      C1260   1.397       .  A
C1259      C1264   1.402       .  A
C1259      H1266   1.084       .  S
C1260      C1261   1.403       .  A
C1261      C1262   1.393       .  A
C1261      N1268   1.433       .  S
C1262      C1263   1.403       .  A
C1262      H1267   1.084       .  S
C1263      C1264   1.412       .  A
C1264      N1265   1.435       .  S
N1265      H1269   1.046       .  S
N1265      H1270   1.046       .  S
N1268      H1271   1.046       .  S
N1268      H1272   1.045       .  S
C1273      C1274   1.403       .  A
C1273      C1278   1.413       .  A
C1273      H1280   1.080   1_556  S
C1274      C1275   1.420       .  A
C1275      C1276   1.413       .  A
C1275      N1282   1.437       .  S
C1276      C1277   1.408       .  A
C1276      H1281   1.083       .  S
C1277      C1278   1.419       .  A
C1278      N1279   1.438       .  S
N1279      H1283   1.045       .  S
N1279      H1284   1.046       .  S
N1282      H1285   1.043       .  S
N1282      H1286   1.045       .  S
C1287      C1288   1.407       .  A
C1287      C1292   1.404       .  A
C1287      H1294   1.083       .  S
C1288      C1289   1.420       .  A
C1289      C1290   1.415       .  A
C1289      N1296   1.436       .  S
C1290      C1291   1.401       .  A
C1290      H1295   1.082       .  S
C1291      C1292   1.416       .  A
C1292      N1293   1.438       .  S
N1293      H1297   1.045       .  S
N1293      H1298   1.043       .  S
N1296      H1299   1.043       .  S
N1296      H1300   1.046       .  S
C1301      C1302   1.407       .  A
C1301      C1306   1.391       .  A
C1301      H1308   1.084       .  S
C1302      C1303   1.408       .  A
C1303      C1304   1.400       .  A
C1303      N1310   1.432       .  S
C1304      C1305   1.403       .  A
C1304      H1309   1.084       .  S
C1305      C1306   1.408       .  A
C1306      N1307   1.439       .  S
N1310      H1313   1.046       .  S
N1310      H1314   1.046       .  S
N1315      C1319   1.354       .  A
N1315      C1535   1.350       .  A
N1315      C1510   1.446   1_556  S
C1316      N1534   1.350       .  A
C1316      C1317   1.380       .  A
C1316      C1524   1.459       .  S
C1317      C1318   1.368       .  A
C1317      H1320   1.082       .  S
C1318      C1538   1.382       .  A
C1318      H1321   1.082       .  S
C1319      C1537   1.382       .  A
C1319      C1576   1.466       .  S
N1322      C1326   1.351       .  A
N1322      C1323   1.367       .  A
N1322      C1712   1.451   1_554  S
C1323      C1324   1.386       .  A
C1324      C1325   1.360       .  A
C1325      C1326   1.376       .  A
C1325      H1328   1.083       .  S
C1326      C1479   1.457       .  S
N1329      C1333   1.358       .  A
N1329      C1330   1.364       .  A
N1329      C1468   1.450   1_554  S
C1330      C1331   1.385       .  A
C1330      C1358   1.489       .  S
C1331      C1332   1.363       .  A
C1332      C1333   1.377       .  A
C1332      H1335   1.082       .  S
C1333      C1454   1.475       .  S
N1336      C1341   1.346       .  A
N1336      C1340   1.351       .  A
N1336      H1368   1.043       .  S
N1337      C1344   1.354   1_545  A
N1338      C1343   1.358       .  A
N1338      C1342   1.360       .  A
N1338      H1369   1.042   1_554  S
N1339      C1346   1.351       .  A
N1339      C1566   1.352       .  A
C1340      C1348   1.387       .  A
C1340      C1356   1.409       .  A
C1341      C1357   1.399       .  A
C1341      C1349   1.384       .  A
C1342      C1350   1.387       .  A
C1342      C1359   1.426       .  A
C1343      C1358   1.426       .  A
C1343      C1351   1.388       .  A
C1344      C1575   1.414       .  A
C1345      C1359   1.413       .  A
C1346      C1354   1.386       .  A
C1346      C1357   1.411       .  A
C1347      N1558   1.352   1_556  A
C1347      C1574   1.386       .  A
C1348      C1349   1.378       .  A
C1348      H1360   1.079       .  S
C1349      H1361   1.082       .  S
C1350      C1351   1.376       .  A
C1350      H1362   1.082       .  S
C1351      H1363   1.079       .  S
C1352      H1364   1.082       .  S
C1353      H1365   1.068       .  S
C1354      C1355   1.375       .  A
C1354      H1366   1.082       .  S
C1355      C1566   1.386       .  A
C1355      H1367   1.083       .  S
C1356      C1563   1.414       .  A
C1357      C1538   1.466       .  S
C1359      C1374   1.508       .  S
N1370      C1374   1.365       .  A
N1370      C1371   1.360       .  A
C1371      C1372   1.382       .  A
C1372      C1373   1.376       .  A
C1372      H1375   1.082       .  S
C1373      C1374   1.385       .  A
C1373      H1376   1.082       .  S
N1377      N1378   1.323       .  A
N1377      N1383   1.318       .  A
N1377     Mn1406   2.208       .  S
N1378      C1385   1.358       .  A
N1379      N1381   1.314       .  A
N1379      N1380   1.323       .  A
N1379     Mn1395   2.208       .  S
N1380      C1386   1.356       .  A
N1381      N1382   1.326       .  A
N1381     Mn1406   2.222       .  S
N1382      C1386   1.357       .  A
N1383      N1384   1.311       .  A
N1383     Mn1395   2.181       .  S
N1384      C1385   1.347       .  A
C1385      C1521   1.473       .  S
C1386      C1507   1.504       .  S
N1387      N1393   1.316       .  A
N1387      N1388   1.316       .  A
N1387     Mn1417   2.191       .  S
N1388      C1396   1.350       .  A
N1389      N1390   1.323       .  A
N1389      N1391   1.313       .  A
N1389     Mn1395   2.209       .  S
N1390      C1397   1.355       .  A
N1391      N1392   1.324       .  A
N1391     Mn1417   2.218       .  S
N1392      C1397   1.359       .  A
N1393      N1394   1.322       .  A
N1393     Mn1395   2.209       .  S
N1394      C1396   1.358       .  A
Mn1395    Cl1419   2.538       .  S
C1396      C1451   1.481       .  S
C1397      C1465   1.504       .  S
N1398      N1399   1.320       .  A
N1398      N1404   1.317       .  A
N1398     Mn1406   2.199       .  S
N1399      C1407   1.354       .  A
N1400      N1402   1.315       .  A
N1400      N1401   1.322       .  A
N1400     Mn1418   2.211       .  S
N1401      C1408   1.354       .  A
N1402      N1403   1.329       .  A
N1402     Mn1406   2.238       .  S
N1403      C1408   1.361       .  A
N1404      N1405   1.316       .  A
N1404     Mn1418   2.186       .  S
N1405      C1407   1.350       .  A
Mn1406    Cl1419   2.565       .  S
C1407      C1482   1.472       .  S
C1408      C1496   1.509       .  S
N1409      N1410   1.319       .  A
N1409      N1415   1.317       .  A
N1409     Mn1417   2.212       .  S
N1410      C1420   1.356       .  A
N1411      N1412   1.325       .  A
N1411      N1413   1.312       .  A
N1411     Mn1418   2.212       .  S
N1412      C1421   1.357       .  A
N1413      N1414   1.320       .  A
N1413     Mn1417   2.198       .  S
N1414      C1421   1.353       .  A
N1415      N1416   1.319       .  A
N1415     Mn1418   2.199       .  S
N1416      C1420   1.352       .  A
Mn1417    Cl1419   2.551       .  S
Mn1418    Cl1419   2.541       .  S
C1420      C1437   1.480       .  S
C1421      C1423   1.492       .  S
C1422      C1423   1.405       .  A
C1422      C1427   1.405       .  A
C1422      H1429   1.083       .  S
C1423      C1424   1.416       .  A
C1424      C1425   1.414       .  A
C1424      N1431   1.438       .  S
C1425      C1426   1.406       .  A
C1425      H1430   1.083       .  S
C1426      C1427   1.412       .  A
N1428      H1432   1.045       .  S
N1428      H1433   1.046       .  S
N1431      H1434   1.045       .  S
N1431      H1435   1.046       .  S
C1436      C1656   1.404   1_554  A
C1436      C1441   1.403       .  A
C1436      H1443   1.084       .  S
C1437      C1655   1.404       .  A
C1437      C1438   1.419       .  A
C1438      C1658   1.397       .  A
C1438      N1445   1.432       .  S
C1439      C1657   1.397   1_554  A
C1439      C1440   1.397       .  A
C1440      C1441   1.411       .  A
C1441      N1442   1.438       .  S
N1442      H1446   1.045       .  S
N1442      H1447   1.046       .  S
N1445      H1448   1.044       .  S
C1450      C1451   1.403       .  A
C1450      C1455   1.401       .  A
C1450      H1457   1.084       .  S
C1451      C1452   1.415       .  A
C1452      C1453   1.400       .  A
C1452      N1459   1.433       .  S
C1453      C1454   1.400       .  A
C1453      H1458   1.084       .  S
C1454      C1455   1.408       .  A
C1455      N1456   1.431       .  S
N1456      H1460   1.046       .  S
N1456      H1461   1.045       .  S
N1459      H1462   1.046       .  S
N1459      H1463   1.045       .  S
C1464      C1465   1.414       .  A
C1464      C1469   1.416       .  A
C1464      H1471   1.083       .  S
C1465      C1466   1.417       .  A
C1466      C1686   1.409       .  A
C1466      N1473   1.438       .  S
C1467      C1685   1.408       .  A
C1467      C1468   1.406       .  A
C1467      H1472   1.083   1_556  S
C1468      C1688   1.406       .  A
C1469      C1687   1.406       .  A
C1469      N1470   1.435       .  S
N1470      H1474   1.046       .  S
N1470      H1475   1.045       .  S
N1473      H1476   1.045       .  S
N1473      H1696   1.046       .  S
H1477      N1692   1.046       .  S
C1478      C1479   1.397       .  A
C1478      C1483   1.402       .  A
C1478      H1485   1.084       .  S
C1479      C1480   1.403       .  A
C1480      C1481   1.393       .  A
C1480      N1487   1.433       .  S
C1481      C1482   1.403       .  A
C1481      H1486   1.084       .  S
C1482      C1483   1.412       .  A
C1483      N1484   1.436       .  S
N1484      H1488   1.046       .  S
N1484      H1489   1.046       .  S
N1487      H1490   1.046       .  S
N1487      H1491   1.045       .  S
C1492      C1493   1.403       .  A
C1492      C1497   1.413       .  A
C1492      H1499   1.080       .  S
C1493      N1541   1.451       .  S
C1493      C1494   1.420       .  A
C1494      C1495   1.413       .  A
C1494      N1501   1.437       .  S
C1495      C1496   1.408       .  A
C1495      H1500   1.083       .  S
C1496      C1497   1.419       .  A
C1497      N1498   1.438       .  S
N1498      H1502   1.046       .  S
N1498      H1503   1.046       .  S
N1501      H1504   1.043       .  S
N1501      H1505   1.045       .  S
C1506      C1507   1.407       .  A
C1506      C1511   1.404       .  A
C1506      H1513   1.083       .  S
C1507      C1508   1.420       .  A
C1508      C1509   1.415       .  A
C1508      N1515   1.436       .  S
C1509      C1510   1.401       .  A
C1509      H1514   1.082       .  S
C1510      C1511   1.417       .  A
C1511      N1512   1.438       .  S
N1512      H1516   1.045       .  S
N1512      H1517   1.043       .  S
N1515      H1518   1.043       .  S
N1515      H1519   1.046       .  S
C1520      C1521   1.407       .  A
C1520      C1525   1.391       .  A
C1520      H1527   1.084       .  S
C1521      C1522   1.408       .  A
C1522      C1523   1.400       .  A
C1522      N1529   1.432       .  S
C1523      C1524   1.403       .  A
C1523      H1528   1.084       .  S
C1524      C1525   1.408       .  A
C1525      N1526   1.439       .  S
N1526      H1749   1.046       .  S
N1526      H1750   1.042       .  S
N1529      H1532   1.046       .  S
N1529      H1533   1.046       .  S
H1530      N1745   1.046       .  S
H1531      N1745   1.042       .  S
N1534      C1538   1.354       .  A
N1534      C1729   1.446       .  S
C1535      C1536   1.380       .  A
C1535      C1743   1.459       .  S
C1536      C1537   1.368       .  A
C1536      H1539   1.082       .  S
C1537      H1540   1.082       .  S
N1541      C1545   1.351       .  A
N1541      C1542   1.367       .  A
C1542      C1543   1.386       .  A
C1543      C1544   1.360       .  A
C1544      C1545   1.376       .  A
C1544      H1547   1.083       .  S
C1545      C1698   1.457       .  S
N1548      C1552   1.358       .  A
N1548      C1549   1.364       .  A
N1548      C1687   1.450       .  S
C1549      C1550   1.385       .  A
C1549      C1577   1.489       .  S
C1550      C1551   1.363       .  A
C1551      C1552   1.377       .  A
C1551      H1554   1.082       .  S
C1552      C1673   1.475       .  S
N1555      C1560   1.346   1_556  A
N1555      C1559   1.350   1_556  A
N1555      H1587   1.043       .  S
N1556      C1563   1.354   1_545  A
N1557      C1562   1.358       .  A
N1557      C1561   1.360       .  A
N1557      H1588   1.042       .  S
N1558      C1565   1.351   1_554  A
C1559      C1567   1.387       .  A
C1559      C1575   1.409       .  A
C1560      C1576   1.399   1_554  A
C1560      C1568   1.384       .  A
C1561      C1569   1.387       .  A
C1561      C1578   1.426       .  A
C1562      C1577   1.426       .  A
C1562      C1570   1.388       .  A
C1564      C1578   1.413       .  A
C1565      C1573   1.386       .  A
C1565      C1576   1.411       .  A
C1567      C1568   1.378       .  A
C1567      H1579   1.079       .  S
C1568      H1580   1.082       .  S
C1569      C1570   1.376       .  A
C1569      H1581   1.082       .  S
C1570      H1582   1.079       .  S
C1571      H1583   1.082       .  S
C1572      H1584   1.068       .  S
C1573      C1574   1.375       .  A
C1573      H1585   1.082       .  S
C1574      H1586   1.083       .  S
C1578      C1593   1.508       .  S
N1589      C1593   1.365       .  A
N1589      C1590   1.360       .  A
C1590      C1591   1.382       .  A
C1591      C1592   1.376       .  A
C1591      H1594   1.082       .  S
C1592      C1593   1.385       .  A
C1592      H1595   1.082       .  S
N1596      N1597   1.323       .  A
N1596      N1602   1.318       .  A
N1596     Mn1625   2.209       .  S
N1597      C1604   1.358       .  A
N1598      N1600   1.314       .  A
N1598      N1599   1.323       .  A
N1598     Mn1614   2.208       .  S
N1599      C1605   1.356       .  A
N1600      N1601   1.325       .  A
N1600     Mn1625   2.222       .  S
N1601      C1605   1.357       .  A
N1602      N1603   1.311       .  A
N1602     Mn1614   2.181       .  S
N1603      C1604   1.347       .  A
C1604      C1740   1.473       .  S
C1605      C1726   1.504       .  S
N1606      N1612   1.316       .  A
N1606      N1607   1.316       .  A
N1606     Mn1636   2.191       .  S
N1607      C1615   1.350       .  A
N1608      N1609   1.323       .  A
N1608      N1610   1.313       .  A
N1608     Mn1614   2.208       .  S
N1609      C1616   1.354       .  A
N1610      N1611   1.324       .  A
N1610     Mn1636   2.218       .  S
N1611      C1616   1.359       .  A
N1612      N1613   1.322       .  A
N1612     Mn1614   2.208       .  S
N1613      C1615   1.358       .  A
Mn1614    Cl1638   2.538       .  S
C1615      C1670   1.481       .  S
C1616      C1684   1.504       .  S
N1617      N1618   1.320       .  A
N1617      N1623   1.317       .  A
N1617     Mn1625   2.200       .  S
N1618      C1626   1.354       .  A
N1619      N1621   1.315       .  A
N1619      N1620   1.322       .  A
N1619     Mn1637   2.211       .  S
N1620      C1627   1.354       .  A
N1621      N1622   1.329       .  A
N1621     Mn1625   2.238       .  S
N1622      C1627   1.361       .  A
N1623      N1624   1.316       .  A
N1623     Mn1637   2.186       .  S
N1624      C1626   1.350       .  A
Mn1625    Cl1638   2.565       .  S
C1626      C1701   1.472       .  S
C1627      C1715   1.509       .  S
N1628      N1629   1.319       .  A
N1628      N1634   1.317       .  A
N1628     Mn1636   2.212       .  S
N1629      C1639   1.355       .  A
N1630      N1631   1.325       .  A
N1630      N1632   1.312       .  A
N1630     Mn1637   2.212       .  S
N1631      C1640   1.357       .  A
N1632      N1633   1.320       .  A
N1632     Mn1636   2.198       .  S
N1633      C1640   1.353       .  A
N1634      N1635   1.319       .  A
N1634     Mn1637   2.199       .  S
N1635      C1639   1.352       .  A
Mn1636    Cl1638   2.551       .  S
Mn1637    Cl1638   2.541       .  S
C1639      C1656   1.480       .  S
C1640      C1642   1.492       .  S
C1641      C1642   1.405       .  A
C1641      C1646   1.405       .  A
C1641      H1648   1.083       .  S
C1642      C1643   1.416       .  A
C1643      C1644   1.414       .  A
C1643      N1650   1.438       .  S
C1644      C1645   1.406       .  A
C1644      H1649   1.083       .  S
C1645      C1646   1.412       .  A
N1647      H1651   1.046       .  S
N1647      H1652   1.045       .  S
N1650      H1653   1.045       .  S
N1650      H1654   1.046       .  S
C1655      C1660   1.403       .  A
C1655      H1662   1.084       .  S
C1656      C1657   1.419       .  A
C1657      N1664   1.432       .  S
C1658      C1659   1.397       .  A
C1659      C1660   1.411       .  A
C1660      N1661   1.438       .  S
N1661      H1665   1.045       .  S
N1661      H1666   1.046       .  S
N1664      H1667   1.044       .  S
C1669      C1670   1.403       .  A
C1669      C1674   1.401       .  A
C1669      H1676   1.084       .  S
C1670      C1671   1.415       .  A
C1671      C1672   1.400       .  A
C1671      N1678   1.433       .  S
C1672      C1673   1.399       .  A
C1672      H1677   1.084       .  S
C1673      C1674   1.408       .  A
C1674      N1675   1.431       .  S
N1675      H1679   1.046       .  S
N1675      H1680   1.045       .  S
N1678      H1681   1.046       .  S
N1678      H1682   1.045       .  S
C1683      C1684   1.414       .  A
C1683      C1688   1.416       .  A
C1683      H1690   1.083       .  S
C1684      C1685   1.417       .  A
C1685      N1692   1.438       .  S
C1686      C1687   1.406       .  A
C1686      H1691   1.083       .  S
C1688      N1689   1.435       .  S
N1689      H1693   1.046       .  S
N1689      H1694   1.045       .  S
N1692      H1695   1.045       .  S
C1697      C1698   1.397       .  A
C1697      C1702   1.402       .  A
C1697      H1704   1.084       .  S
C1698      C1699   1.403       .  A
C1699      C1700   1.393       .  A
C1699      N1706   1.433       .  S
C1700      C1701   1.403       .  A
C1700      H1705   1.084       .  S
C1701      C1702   1.412       .  A
C1702      N1703   1.435       .  S
N1703      H1707   1.046       .  S
N1703      H1708   1.046       .  S
N1706      H1709   1.046       .  S
N1706      H1710   1.045       .  S
C1711      C1712   1.403       .  A
C1711      C1716   1.413       .  A
C1711      H1718   1.080   1_556  S
C1712      C1713   1.420       .  A
C1713      C1714   1.413       .  A
C1713      N1720   1.437       .  S
C1714      C1715   1.408       .  A
C1714      H1719   1.083       .  S
C1715      C1716   1.419       .  A
C1716      N1717   1.438       .  S
N1717      H1721   1.045       .  S
N1717      H1722   1.046       .  S
N1720      H1723   1.043       .  S
N1720      H1724   1.045       .  S
C1725      C1726   1.407       .  A
C1725      C1730   1.404       .  A
C1725      H1732   1.083       .  S
C1726      C1727   1.420       .  A
C1727      C1728   1.415       .  A
C1727      N1734   1.436       .  S
C1728      C1729   1.401       .  A
C1728      H1733   1.082       .  S
C1729      C1730   1.416       .  A
C1730      N1731   1.438       .  S
N1731      H1735   1.045       .  S
N1731      H1736   1.043       .  S
N1734      H1737   1.043       .  S
N1734      H1738   1.046       .  S
C1739      C1740   1.407       .  A
C1739      C1744   1.391       .  A
C1739      H1746   1.084       .  S
C1740      C1741   1.408       .  A
C1741      C1742   1.400       .  A
C1741      N1748   1.432       .  S
C1742      C1743   1.403       .  A
C1742      H1747   1.084       .  S
C1743      C1744   1.408       .  A
C1744      N1745   1.439       .  S
N1748      H1751   1.046       .  S
N1748      H1752   1.045       .  S
