geometry optimzed in LAMMPS
_audit_creation_date              2020-11-30 
_audit_creation_method            'lammps2cif' 
_symmetry_space_group_name_H-M    'P1' 
_symmetry_Int_Tables_number       1 
_symmetry_cell_setting            triclinic 
loop_ 
_symmetry_equiv_pos_as_xyz 
  x,y,z 
_cell_length_a                    48.15809068 
_cell_length_b                    25.385023085003667 
_cell_length_c                    37.12760349018246 
_cell_angle_alpha                 89.72897660948252 
_cell_angle_beta                  90.232440051224 
_cell_angle_gamma                 89.64636559098504 
loop_ 
_atom_site_label 
_atom_site_type_symbol 
_atom_site_fract_x 
_atom_site_fract_y 
_atom_site_fract_z 
_atom_site_charge 
C1          C  0.36275068  0.75431951  0.99901027     0.02900
C2          C  0.35411480  0.73022760  0.46585497    -0.13200
C3          C  0.33330018  0.69208114  0.46747334     0.00400
C4          C  0.32355021  0.67525678  0.50096655    -0.11700
C5          C  0.33136961  0.69848872  0.03294709     0.02900
C6          C  0.35168815  0.73760301  0.03207588    -0.11200
H7          H  0.36102348  0.74441620  0.43983317     0.08500
H8          H  0.30684621  0.64684802  0.50223990     0.06100
H9          H  0.35765588  0.75704073  0.05682922     0.05900
C10         C  0.12141909  0.85650508  0.99876391     0.02900
C11         C  0.12711083  0.83404897  0.46735247    -0.13200
C12         C  0.14632158  0.79282652  0.46543070     0.00400
C13         C  0.16074679  0.77684216  0.49633135    -0.11700
C14         C  0.15396550  0.79827005  0.02962305     0.02900
C15         C  0.13509351  0.84029181  0.03043749    -0.11200
H16         H  0.11472975  0.84373076  0.44378585     0.08500
H17         H  0.17478680  0.74332641  0.49512274     0.06100
H18         H  0.12976760  0.85791506  0.05604416     0.05900
C19         C  0.30908775  0.26955223  0.00334554     0.02900
C20         C  0.30423287  0.29122350  0.46837590    -0.13200
C21         C  0.28663339  0.33528515  0.46558557     0.00400
C22         C  0.27623239  0.35872007  0.49682150    -0.11700
C23         C  0.28045629  0.33713807  0.03107624     0.02900
C24         C  0.29726749  0.29239034  0.03404231    -0.11200
H25         H  0.31383093  0.27566638  0.44431305     0.08500
H26         H  0.26339675  0.39386416  0.49481987     0.06100
H27         H  0.30236628  0.27713993  0.06059083     0.05900
N28         N  0.47407484  0.98246948  0.00262823    -0.36800
N29         N  0.42248412  0.04071655  0.00454056    -0.57400
N30         N  0.45381347  0.13788593  0.00846069    -0.36800
N31         N  0.00558467  0.08000943  0.99935030    -0.57400
C32         C  0.45596065  0.94506685  0.99218984     0.26800
C33         C  0.49964377  0.96535925  0.99360577     0.26800
C34         C  0.42771905  0.15700715  0.00439013     0.26800
C35         C  0.47153245  0.17813774  0.00247196     0.26800
C36         C  0.41320983  0.99146957  0.01080794     0.35400
C37         C  0.40218898  0.07376270  0.01543089     0.35400
C38         C  0.02687909  0.04567532  0.00327649     0.35400
C39         C  0.01613308  0.12838858  0.00502020     0.35400
C40         C  0.47019765  0.90387897  0.97600052    -0.22100
C41         C  0.49789908  0.91656418  0.97715467    -0.22100
C42         C  0.42883243  0.21015438  0.99574271    -0.22100
C43         C  0.45635570  0.22368718  0.99529101    -0.22100
C44         C  0.38690109  0.99318951  0.02571567    -0.23100
C45         C  0.37984263  0.04549569  0.02850744    -0.23100
C46         C  0.05116403  0.07221162  0.01121010    -0.23100
C47         C  0.04449743  0.12465817  0.01160852    -0.23100
C48         C  0.42736416  0.94529852  0.00021787    -0.18500
C49         C  0.02516603  0.99124375  0.99665199    -0.18500
C50         C  0.00084232  0.17591797  0.00171980    -0.18500
C51         C  0.40299851  0.12896537  0.01162049    -0.18500
H52         H  0.46161439  0.86784213  0.96533650     0.14400
H53         H  0.01556418  0.89260748  0.96172882     0.14400
H54         H  0.41161756  0.23705612  0.99140410     0.14400
H55         H  0.46407586  0.26308533  0.99089958     0.14400
H56         H  0.37403518  0.96019703  0.03332926     0.12700
H57         H  0.36048278  0.06096521  0.03886966     0.12700
H58         H  0.07176791  0.05582331  0.01503017     0.12700
H59         H  0.05921599  0.15607173  0.01561114     0.12700
H60         H  0.46977519  0.01405053  0.01948408     0.26000
H61         H  0.45896989  0.10125285  0.01903695     0.26000
C62         C  0.06597600  0.36734012  0.99976121     0.02900
C63         C  0.07608403  0.38280596  0.46849496    -0.13200
C64         C  0.09384546  0.42571921  0.46514486     0.00400
C65         C  0.10102373  0.45502670  0.49541298    -0.11700
C66         C  0.09076453  0.43931673  0.02854420     0.02900
C67         C  0.07108596  0.39898082  0.03013789    -0.11200
H68         H  0.07274506  0.35810830  0.44519339     0.08500
H69         H  0.11659308  0.48556128  0.49316536     0.06100
H70         H  0.06130546  0.39032819  0.05562752     0.05900
O71         O  0.27923248  0.63294687  0.31160014    -0.75500
O72         O  0.24741601  0.60231785  0.35185840    -0.54400
C73         C  0.27001950  0.62621140  0.34381162     0.78200
O74         O  0.17781385  0.69560934  0.18786208    -0.60100
O75         O  0.19210270  0.63359755  0.14755345    -0.53100
C76         C  0.18122669  0.67819662  0.15571708     0.70300
O77         O  0.17358173  0.69135270  0.30859816    -0.74600
O78         O  0.18940951  0.63115183  0.34978040    -0.55200
C79         C  0.17731564  0.67466579  0.34100625     0.76300
O80         O  0.28099728  0.63188299  0.18954779    -0.59800
O81         O  0.24977445  0.60122081  0.14836215    -0.52900
C82         C  0.27244058  0.62431961  0.15704932     0.72900
Zr83       Zr  0.26397949  0.61263372  0.25028607     2.54700
O84         O  0.28167927  0.70229886  0.25130835    -0.80300
O85         O  0.31058913  0.57493409  0.25113101    -0.93800
Zr86       Zr  0.18434990  0.66021868  0.24845490     2.64700
O87         O  0.19656387  0.75301266  0.25169600    -0.98700
O88         O  0.13481907  0.67860064  0.24280348    -0.80800
O89         O  0.22404480  0.63750127  0.28369279    -0.84100
O90         O  0.22481235  0.63861785  0.21535852    -2.18800
O91         O  0.24874017  0.43138825  0.18884782    -0.67500
O92         O  0.23407888  0.49365043  0.14839564    -0.52100
C93         C  0.24545903  0.44946794  0.15667242     0.71200
O94         O  0.14378976  0.48880539  0.30806074    -0.60400
O95         O  0.17522260  0.51774714  0.34961626    -0.52400
C96         C  0.15263853  0.49464749  0.34054727     0.73000
O97         O  0.14334361  0.49415377  0.18598637    -0.71800
O98         O  0.17562831  0.52519225  0.14656967    -0.50500
C99         C  0.15266924  0.50223568  0.15396205     0.74400
O100        O  0.24733883  0.42871549  0.30992895    -0.67500
O101        O  0.23396204  0.49096890  0.35064627    -0.54400
C102        C  0.24488554  0.44638979  0.34216073     0.72800
Zr103      Zr  0.23866743  0.46266274  0.24943937     2.77500
O104        O  0.22154219  0.37266821  0.25027237    -0.97900
O105        O  0.28690539  0.43349871  0.25043907    -0.78700
Zr106      Zr  0.15949526  0.51118211  0.24751664     2.70100
O107        O  0.13995994  0.42301238  0.24757496    -0.80000
O108        O  0.11295405  0.54910061  0.24688846    -0.99100
Zr109      Zr  0.21144191  0.56093701  0.31670060     2.21500
Zr110      Zr  0.21243262  0.56272409  0.18191121     2.11100
O111        O  0.19924948  0.48571846  0.21414300    -2.47800
O112        O  0.19862647  0.48551858  0.28291713    -0.79800
O113        O  0.25233021  0.53766272  0.21557337    -0.72000
O114        O  0.17125069  0.58539554  0.28279077    -2.32900
O115        O  0.25182662  0.53689842  0.28413949    -2.29100
O116        O  0.17164561  0.58657918  0.21333640    -0.73700
H117        H  0.22969143  0.66769538  0.19979785     0.78300
H118        H  0.15583054  0.59394657  0.29828930     0.79400
H119        H  0.19471213  0.45722471  0.19806307     0.81600
H120        H  0.26695294  0.52769795  0.30020537     0.79200
H121        H  0.13269408  0.71583062  0.25016117     0.42200
H122        H  0.11133533  0.56689537  0.22317134     0.41200
H123        H  0.15629632  0.39923752  0.24651781     0.40900
H124        H  0.20677207  0.37204280  0.23167314     0.38800
H125        H  0.29632119  0.45678768  0.23291526     0.41900
H126        H  0.31164720  0.55419669  0.27374730     0.36700
H127        H  0.26483680  0.72483703  0.25203574     0.42800
H128        H  0.20878609  0.75919592  0.23073942     0.39300
H129        H  0.23685507  0.35141438  0.23998548     0.44200
H130        H  0.32291824  0.60536720  0.25536612     0.42900
H131        H  0.17915029  0.77213928  0.24573141     0.43000
H132        H  0.10051529  0.51830909  0.24500670     0.43400
C133        C  0.13616416  0.48375089  0.12305190    -0.06300
C134        C  0.10767003  0.49599705  0.12090540    -0.17400
C135        C  0.09206720  0.48340632  0.09012793     0.10900
C136        C  0.10511090  0.45655959  0.06155490    -0.06200
C137        C  0.13327309  0.44291101  0.06442692    -0.17500
C138        C  0.14901071  0.45672477  0.09440643     0.10900
S139        S  0.05618603  0.50409428  0.08850787    -0.32400
S140        S  0.18523950  0.43767092  0.09602499    -0.32400
H141        H  0.18727982  0.41848173  0.06063062     0.28900
H142        H  0.05381152  0.50626613  0.05078812     0.28900
H143        H  0.09782837  0.51737996  0.14264022     0.19500
H144        H  0.14294345  0.42082919  0.04292114     0.19500
C145        C  0.10800123  0.43605984  0.43106373    -0.06300
C146        C  0.09340531  0.46241911  0.40360494    -0.17400
C147        C  0.10725821  0.48167541  0.37330972     0.10900
C148        C  0.13613574  0.47268901  0.37005324    -0.06200
C149        C  0.15031132  0.44386118  0.39678776    -0.17500
C150        C  0.13659836  0.42541462  0.42721809     0.10900
S151        S  0.08745277  0.52113739  0.34171843    -0.32400
S152        S  0.15698428  0.39038096  0.46069570    -0.32400
H153        H  0.13513038  0.36085069  0.47532326     0.28900
H154        H  0.10864200  0.55765697  0.33478353     0.28900
H155        H  0.07146899  0.47086754  0.40688394     0.19500
H156        H  0.17240267  0.43633195  0.39417660     0.19500
C157        C  0.01658068  0.22610208  0.00124776    -0.06300
C158        C  0.03117013  0.24091523  0.03230456    -0.17400
C159        C  0.04892133  0.28439928  0.03199754     0.10900
C160        C  0.04836868  0.31929439  0.00197886    -0.06200
C161        C  0.03067270  0.30550927  0.47693804    -0.17500
C162        C  0.01686420  0.25741661  0.47728118     0.10900
S163        S  0.07457693  0.28943163  0.06760906    -0.32400
S164        S  0.00110755  0.23610287  0.43563367    -0.32400
H165        H  0.50569729  0.18471243  0.43639166     0.28900
H166        H  0.06929171  0.24066259  0.08429606     0.28900
H167        H  0.03032102  0.21567335  0.05586967     0.19500
H168        H  0.02905080  0.32977377  0.45295743     0.19500
C169        C  0.37657328  0.15920628  0.01397549    -0.06300
C170        C  0.35612605  0.14905906  0.48665521    -0.17400
C171        C  0.33306636  0.18255641  0.48410562     0.10900
C172        C  0.33078765  0.22828980  0.00793398    -0.06200
C173        C  0.35103679  0.23530442  0.03493177    -0.17500
C174        C  0.37294982  0.19977564  0.03933721     0.10900
S175        S  0.30639387  0.16563021  0.45199732    -0.32400
S176        S  0.39592552  0.20885426  0.07729705    -0.32400
H177        H  0.40452380  0.15590589  0.07983264     0.28900
H178        H  0.28435282  0.18784629  0.47163537     0.28900
H179        H  0.35849369  0.11736293  0.46743202     0.19500
H180        H  0.35004154  0.26900433  0.05267847     0.19500
C181        C  0.27239797  0.36567292  0.06379885    -0.06300
C182        C  0.25719988  0.33904010  0.09031504    -0.17400
C183        C  0.24841879  0.36492109  0.12140805     0.10900
C184        C  0.25554689  0.41823976  0.12638250    -0.06200
C185        C  0.27127934  0.44438137  0.10026506    -0.17500
C186        C  0.28001306  0.41868360  0.06929839     0.10900
S187        S  0.22687378  0.32876839  0.15234218    -0.32400
S188        S  0.30159596  0.45541692  0.03873024    -0.32400
H189        H  0.31853047  0.41235989  0.02929750     0.28900
H190        H  0.20948294  0.37144646  0.16113031     0.28900
H191        H  0.25143319  0.29829296  0.08621270     0.19500
H192        H  0.27699836  0.48522837  0.10419673     0.19500
C193        C  0.27989065  0.35954237  0.43050341    -0.06300
C194        C  0.26033410  0.33506930  0.40812689    -0.17400
C195        C  0.24863595  0.36200291  0.37864987     0.10900
C196        C  0.25667268  0.41453077  0.37164480    -0.06200
C197        C  0.27711023  0.43788222  0.39313081    -0.17500
C198        C  0.28922342  0.41058691  0.42186799     0.10900
S199        S  0.22242690  0.32848180  0.35269136    -0.32400
S200        S  0.31657906  0.44291205  0.44639359    -0.32400
H201        H  0.33011212  0.39649129  0.45785385     0.28900
H202        H  0.20684349  0.37363349  0.34352673     0.28900
H203        H  0.25307552  0.29589518  0.41479282     0.19500
H204        H  0.28391932  0.47762081  0.38719601     0.19500
C205        C  0.05079389  0.95925361  0.99896492    -0.06300
C206        C  0.07072969  0.96858231  0.47686684    -0.17400
C207        C  0.09517112  0.93881386  0.47615894     0.10900
C208        C  0.09877698  0.89591896  0.00009686    -0.06200
C209        C  0.07864548  0.89094993  0.02716013    -0.17500
C210        C  0.05512399  0.92311524  0.02739673     0.10900
S211        S  0.11980471  0.95409900  0.44123072    -0.32400
S212        S  0.03128590  0.91573214  0.06443933    -0.32400
H213        H  0.02180081  0.96821610  0.06458862     0.28900
H214        H  0.14339395  0.94153019  0.46209338     0.28900
H215        H  0.06689925  0.99781006  0.45603026     0.19500
H216        H  0.08090475  0.86113261  0.04795761     0.19500
C217        C  0.17192058  0.71127078  0.12560689    -0.06300
C218        C  0.18216345  0.76272541  0.12229385    -0.17400
C219        C  0.17712349  0.79249675  0.09105887     0.10900
C220        C  0.16115157  0.77033931  0.06307781    -0.06200
C221        C  0.14994428  0.71990907  0.06733467    -0.17500
C222        C  0.15493700  0.69039442  0.09825499     0.10900
S223        S  0.19241894  0.85708085  0.08819359    -0.32400
S224        S  0.13841443  0.62693546  0.10142113    -0.32400
H225        H  0.13576395  0.62679475  0.13913604     0.28900
H226        H  0.19261337  0.86112702  0.05044982     0.28900
H227        H  0.19515508  0.77882512  0.14340067     0.19500
H228        H  0.13677996  0.70362383  0.04647443     0.19500
C229        C  0.15002965  0.76359434  0.43176060    -0.06300
C230        C  0.16080402  0.79023129  0.40185186    -0.17400
C231        C  0.16958477  0.76254879  0.37149118     0.10900
C232        C  0.16674011  0.70712102  0.37067704    -0.06200
C233        C  0.15429213  0.68114371  0.39980988    -0.17500
C234        C  0.14569462  0.70873212  0.43013613     0.10900
S235        S  0.18638470  0.79983272  0.33644552    -0.32400
S236        S  0.12949049  0.67160450  0.46584208    -0.32400
H237        H  0.11266140  0.71316238  0.47823559     0.28900
H238        H  0.20752185  0.76260232  0.33022003     0.28900
H239        H  0.16405926  0.83241049  0.40311543     0.19500
H240        H  0.15139641  0.63883751  0.39904182     0.19500
C241        C  0.38115556  0.80070652  0.99766902    -0.06300
C242        C  0.37530045  0.84066677  0.47253456    -0.17400
C243        C  0.39036249  0.88736284  0.47141656     0.10900
C244        C  0.41173324  0.89509850  0.99768861    -0.06200
C245        C  0.41987854  0.85243610  0.01964436    -0.17500
C246        C  0.40533618  0.80490637  0.01914619     0.10900
S247        S  0.37928773  0.93671323  0.43912854    -0.32400
S248        S  0.41917532  0.75086308  0.04552880    -0.32400
H249        H  0.40936424  0.71084025  0.02279294     0.28900
H250        H  0.40486378  0.96263517  0.43615846     0.28900
H251        H  0.35706344  0.83718904  0.45553494     0.19500
H252        H  0.43789869  0.85608450  0.03702048     0.19500
C253        C  0.28885789  0.64552453  0.12703160    -0.06300
C254        C  0.27455641  0.67434778  0.10043211    -0.17400
C255        C  0.28833736  0.69484358  0.07064872     0.10900
C256        C  0.31705694  0.68522207  0.06665530    -0.06200
C257        C  0.33164428  0.65786779  0.09367047    -0.17500
C258        C  0.31779399  0.63749574  0.12370367     0.10900
S259        S  0.26809723  0.73310208  0.03879654    -0.32400
S260        S  0.33771593  0.59836775  0.15518272    -0.32400
H261        H  0.31682122  0.56076062  0.16081186     0.28900
H262        H  0.28997771  0.76556488  0.02745966     0.28900
H263        H  0.25242164  0.68140582  0.10306189     0.19500
H264        H  0.35364779  0.65008655  0.09042796     0.19500
C265        C  0.31828340  0.67607439  0.43465971    -0.06300
C266        C  0.28995672  0.68884409  0.43244365    -0.17400
C267        C  0.27411338  0.67526507  0.40244744     0.10900
C268        C  0.28660462  0.64716581  0.37396284    -0.06200
C269        C  0.31521468  0.63605091  0.37551274    -0.17500
C270        C  0.33114771  0.64972079  0.40572021     0.10900
S271        S  0.23837158  0.69682983  0.40171145    -0.32400
S272        S  0.36727833  0.63040551  0.40628512    -0.32400
H273        H  0.37015081  0.62631825  0.44388584     0.28900
H274        H  0.23700673  0.70368679  0.36417526     0.28900
H275        H  0.28014990  0.71033796  0.45417920     0.19500
H276        H  0.32495786  0.61458995  0.35374029     0.19500
C277        C  0.36463063  0.75268668  0.49762288     0.02900
C278        C  0.35316988  0.73148545  0.96685485    -0.13200
C279        C  0.33277196  0.69243803  0.96777267     0.00400
C280        C  0.32249257  0.67525226  0.00091076    -0.11700
C281        C  0.33347643  0.69789649  0.53270789     0.02900
C282        C  0.35423217  0.73611544  0.53111639    -0.11200
H283        H  0.36047994  0.74600495  0.94110533     0.08500
H284        H  0.30621017  0.64592985  0.00161713     0.06100
H285        H  0.36083226  0.75538473  0.55566052     0.05900
C286        C  0.12257922  0.86031713  0.50000714     0.02900
C287        C  0.12676338  0.82989596  0.96648498    -0.13200
C288        C  0.14647307  0.78942987  0.96537308     0.00400
C289        C  0.16065602  0.77476344  0.99678956    -0.11700
C290        C  0.15507483  0.80018855  0.52950408     0.02900
C291        C  0.13691152  0.84335385  0.53110061    -0.11200
H292        H  0.11479316  0.83913255  0.94247415     0.08500
H293        H  0.17525701  0.74207335  0.99626521     0.06100
H294        H  0.13234520  0.86091918  0.55696888     0.05900
C295        C  0.31035327  0.26916941  0.50243309     0.02900
C296        C  0.30245812  0.29055685  0.96913362    -0.13200
C297        C  0.28411597  0.33348627  0.96601709     0.00400
C298        C  0.27320904  0.35663567  0.99704251    -0.11700
C299        C  0.28313087  0.33820222  0.53067552     0.02900
C300        C  0.29885987  0.29214394  0.53326445    -0.11200
H301        H  0.31229034  0.27514546  0.94518031     0.08500
H302        H  0.25984100  0.39102910  0.99473043     0.06100
H303        H  0.30344983  0.27594071  0.55970610     0.05900
N304        N  0.47480699  0.98310651  0.50031782    -0.36800
N305        N  0.42290484  0.03936908  0.50394586    -0.57400
N306        N  0.45356910  0.13766197  0.50990643    -0.36800
N307        N  0.00542553  0.08146708  0.50829849    -0.57400
C308        C  0.45692113  0.94494752  0.49032065     0.26800
C309        C  0.50049303  0.96678351  0.49100788     0.26800
C310        C  0.42735414  0.15560953  0.50483956     0.26800
C311        C  0.47083972  0.17863856  0.50383821     0.26800
C312        C  0.41360604  0.98987648  0.50878903     0.35400
C313        C  0.40214000  0.07160262  0.51426140     0.35400
C314        C  0.02680887  0.04711184  0.51143267     0.35400
C315        C  0.01589842  0.12968982  0.51486714     0.35400
C316        C  0.47143320  0.90397792  0.47431721    -0.22100
C317        C  0.49901171  0.91763693  0.47499659    -0.22100
C318        C  0.42794422  0.20869648  0.49593172    -0.22100
C319        C  0.45523064  0.22345772  0.49618752    -0.22100
C320        C  0.38680128  0.99063634  0.52224589    -0.23100
C321        C  0.37946219  0.04265230  0.52557159    -0.23100
C322        C  0.05100917  0.07344080  0.52002165    -0.23100
C323        C  0.04425326  0.12580003  0.52149474    -0.23100
C324        C  0.42824288  0.94443761  0.49809709    -0.18500
C325        C  0.02534494  0.99302028  0.50342381    -0.18500
C326        C  0.00059588  0.17730221  0.51203880    -0.18500
C327        C  0.40280219  0.12672645  0.51114067    -0.18500
H328        H  0.46311368  0.86752502  0.46395403     0.14400
H329        H  0.01614112  0.89500618  0.46744312     0.14400
H330        H  0.41049167  0.23469590  0.49067194     0.14400
H331        H  0.46249739  0.26306534  0.49143133     0.14400
H332        H  0.37375562  0.95726084  0.52842643     0.12700
H333        H  0.35966342  0.05746883  0.53495495     0.12700
H334        H  0.07162632  0.05697756  0.52357297     0.12700
H335        H  0.05893329  0.15700924  0.52630542     0.12700
H336        H  0.47035572  0.01486084  0.51690872     0.26000
H337        H  0.45900015  0.10134157  0.52085176     0.26000
C338        C  0.06446739  0.36981177  0.50210544     0.02900
C339        C  0.07889227  0.38053369  0.96697199    -0.13200
C340        C  0.09629136  0.42414599  0.96463211     0.00400
C341        C  0.10215283  0.45345222  0.99534589    -0.11700
C342        C  0.09041738  0.44174059  0.52917955     0.02900
C343        C  0.07056503  0.40187355  0.53194886    -0.11200
H344        H  0.07639406  0.35599961  0.94340823     0.08500
H345        H  0.11733482  0.48478474  0.99398205     0.06100
H346        H  0.06157829  0.39356868  0.55798451     0.05900
O347        O  0.28089440  0.63202711  0.81108235    -0.75500
O348        O  0.24885355  0.60114378  0.85093877    -0.54400
C349        C  0.27151866  0.62491479  0.84315337     0.78200
O350        O  0.17889727  0.69501216  0.68696923    -0.60100
O351        O  0.19435591  0.63420414  0.64653367    -0.53100
C352        C  0.18284288  0.67818142  0.65479051     0.70300
O353        O  0.17424178  0.69045524  0.80757391    -0.74600
O354        O  0.19062511  0.63063576  0.84852572    -0.55200
C355        C  0.17801238  0.67364067  0.83992509     0.76300
O356        O  0.28248345  0.63205898  0.68888359    -0.59800
O357        O  0.25116065  0.60302804  0.64728726    -0.52900
C358        C  0.27381791  0.62582946  0.65633842     0.72900
Zr359      Zr  0.26615112  0.61170921  0.74960866     2.54700
O360        O  0.28569190  0.69989379  0.74801250    -0.80300
O361        O  0.31269533  0.57356555  0.75144180    -0.93800
Zr362      Zr  0.18708432  0.66136973  0.74765910     2.64700
O363        O  0.20657712  0.74949873  0.75106450    -0.98700
O364        O  0.14025872  0.69720358  0.74263706    -0.80800
O365        O  0.22642560  0.63772052  0.78312285    -0.84100
O366        O  0.22715242  0.63836522  0.71461480    -2.18800
O367        O  0.25071920  0.43198820  0.68811521    -0.67500
O368        O  0.23646897  0.49443345  0.64749170    -0.52100
C369        C  0.24777760  0.45023543  0.65593494     0.71200
O370        O  0.14538575  0.48855274  0.80678499    -0.60400
O371        O  0.17611787  0.52012977  0.84819686    -0.52400
C372        C  0.15390604  0.49577570  0.83928492     0.73000
O373        O  0.14436404  0.49785463  0.68512744    -0.71800
O374        O  0.17741526  0.52561688  0.64566518    -0.50500
C375        C  0.15397660  0.50448264  0.65315511     0.74400
O376        O  0.24750589  0.42771679  0.80934461    -0.67500
O377        O  0.23356286  0.48975774  0.84990029    -0.54400
C378        C  0.24440357  0.44505890  0.84158097     0.72800
Zr379      Zr  0.24044784  0.46272718  0.74870285     2.77500
O380        O  0.22629469  0.37083454  0.74947817    -0.97900
O381        O  0.28962000  0.44047776  0.75192950    -0.78700
Zr382      Zr  0.16124469  0.51185185  0.74642681     2.70100
O383        O  0.14380249  0.42215151  0.74382792    -0.80000
O384        O  0.11390982  0.54584646  0.74872973    -0.99100
Zr385      Zr  0.21289019  0.56107405  0.81540272     2.21500
Zr386      Zr  0.21433402  0.56305015  0.68097121     2.11100
O387        O  0.20106285  0.48610835  0.71321794    -2.47800
O388        O  0.20020719  0.48571043  0.78174873    -0.79800
O389        O  0.25428178  0.53728153  0.71450825    -0.72000
O390        O  0.17298571  0.58637733  0.78125778    -2.32900
O391        O  0.25354742  0.53645524  0.78361702    -2.29100
O392        O  0.17369983  0.58768200  0.71267118    -0.73700
H393        H  0.23206182  0.66741475  0.69906668     0.78300
H394        H  0.15744532  0.59495341  0.79654896     0.79400
H395        H  0.19650902  0.45770927  0.69707248     0.81600
H396        H  0.26851165  0.52700683  0.79989095     0.79200
H397        H  0.12843342  0.66609644  0.73834736     0.42200
H398        H  0.11309886  0.57317215  0.72964579     0.41200
H399        H  0.15612572  0.40396676  0.72653732     0.40900
H400        H  0.21156481  0.36853519  0.73089587     0.38800
H401        H  0.29858169  0.46542389  0.73508211     0.41900
H402        H  0.31899171  0.57746990  0.77669712     0.36700
H403        H  0.27258640  0.72065922  0.73291755     0.42800
H404        H  0.21702166  0.75398460  0.72835683     0.39300
H405        H  0.24226143  0.35132315  0.73925210     0.44200
H406        H  0.32424199  0.59871758  0.73772223     0.42900
H407        H  0.19034282  0.77334851  0.74841404     0.43000
H408        H  0.10236452  0.51680625  0.73931700     0.43400
C409        C  0.13714284  0.48625903  0.62253133    -0.06300
C410        C  0.10880527  0.49962464  0.62056877    -0.17400
C411        C  0.09282057  0.48651704  0.59028542     0.10900
C412        C  0.10546758  0.45941397  0.56154866    -0.06200
C413        C  0.13353109  0.44476047  0.56417838    -0.17500
C414        C  0.14942094  0.45745363  0.59432775     0.10900
S415        S  0.05676365  0.50595332  0.58967829    -0.32400
S416        S  0.18487413  0.43391138  0.59726400    -0.32400
H417        H  0.18702832  0.41539442  0.56172973     0.28900
H418        H  0.05447660  0.51112989  0.55206730     0.28900
H419        H  0.09931098  0.52171373  0.64223365     0.19500
H420        H  0.14284076  0.42205822  0.54270077     0.19500
C421        C  0.11060886  0.43647617  0.93087310    -0.06300
C422        C  0.09532190  0.45908603  0.90249265    -0.17400
C423        C  0.10865482  0.47816496  0.87172612     0.10900
C424        C  0.13784133  0.47356745  0.86916982    -0.06200
C425        C  0.15284770  0.44897334  0.89708793    -0.17500
C426        C  0.13960337  0.43033152  0.92777092     0.10900
S427        S  0.08754015  0.51101906  0.83820273    -0.32400
S428        S  0.16092175  0.40010852  0.96228769    -0.32400
H429        H  0.14085370  0.36352399  0.97338340     0.28900
H430        H  0.10679127  0.55106333  0.83086336     0.28900
H431        H  0.07305894  0.46421145  0.90512574     0.19500
H432        H  0.17520513  0.44455402  0.89508763     0.19500
C433        C  0.01633434  0.22733801  0.50933277    -0.06300
C434        C  0.03190296  0.24390332  0.53909087    -0.17400
C435        C  0.04944830  0.28750817  0.53666519     0.10900
C436        C  0.04763162  0.32099758  0.50596687    -0.06200
C437        C  0.03228698  0.30559072  0.97168915    -0.17500
C438        C  0.01846068  0.25760304  0.97001260     0.10900
S439        S  0.07668365  0.29382834  0.57014575    -0.32400
S440        S  0.00502376  0.23747346  0.92680178    -0.32400
H441        H  0.50765697  0.18156143  0.93586110     0.28900
H442        H  0.06690778  0.25549573  0.59436811     0.28900
H443        H  0.03201525  0.21977333  0.56321736     0.19500
H444        H  0.03169188  0.33092670  0.94815834     0.19500
C445        C  0.37636842  0.15641873  0.51342652    -0.06300
C446        C  0.35579433  0.15040930  0.98810399    -0.17400
C447        C  0.33238570  0.18316036  0.98584993     0.10900
C448        C  0.33142859  0.22688253  0.50696382    -0.06200
C449        C  0.35122369  0.23237885  0.53472629    -0.17500
C450        C  0.37266546  0.19610224  0.53932278     0.10900
S451        S  0.30504984  0.16416198  0.95531179    -0.32400
S452        S  0.39543533  0.20388516  0.57769492    -0.32400
H453        H  0.40363810  0.15067722  0.57988325     0.28900
H454        H  0.28333186  0.18599220  0.97575322     0.28900
H455        H  0.35792193  0.11795251  0.96943956     0.19500
H456        H  0.35039148  0.26568202  0.55282198     0.19500
C457        C  0.27550756  0.36640628  0.56366032    -0.06300
C458        C  0.25974774  0.34003222  0.58972652    -0.17400
C459        C  0.25082874  0.36586776  0.62073081     0.10900
C460        C  0.25821965  0.41899627  0.62592626    -0.06200
C461        C  0.27484503  0.44467692  0.60052748    -0.17500
C462        C  0.28390362  0.41882631  0.56975926     0.10900
S463        S  0.22885064  0.32984409  0.65126780    -0.32400
S464        S  0.30673127  0.45452840  0.54014140    -0.32400
H465        H  0.32249692  0.41035060  0.52977267     0.28900
H466        H  0.21175997  0.37274856  0.66046081     0.28900
H467        H  0.25357798  0.29958270  0.58527592     0.19500
H468        H  0.28096977  0.48521970  0.60485958     0.19500
C469        C  0.27756729  0.35757963  0.93083114    -0.06300
C470        C  0.25715129  0.33445038  0.90907897    -0.17400
C471        C  0.24612616  0.36146050  0.87919237     0.10900
C472        C  0.25549409  0.41287542  0.87135092    -0.06200
C473        C  0.27662514  0.43488922  0.89232463    -0.17500
C474        C  0.28820463  0.40738058  0.92133418     0.10900
S475        S  0.21943057  0.32930611  0.85333416    -0.32400
S476        S  0.31641992  0.43826263  0.94510554    -0.32400
H477        H  0.32808134  0.39185820  0.95953929     0.28900
H478        H  0.20506498  0.37537275  0.84304704     0.28900
H479        H  0.24890587  0.29623190  0.91635612     0.19500
H480        H  0.28438820  0.47377459  0.88577372     0.19500
C481        C  0.05127285  0.96162197  0.50435127    -0.06300
C482        C  0.07104433  0.96522810  0.97232985    -0.17400
C483        C  0.09542232  0.93531001  0.97330724     0.10900
C484        C  0.09969647  0.89926379  0.50261155    -0.06200
C485        C  0.08029366  0.89326469  0.53051197    -0.17500
C486        C  0.05653676  0.92478537  0.53206997     0.10900
S487        S  0.12177662  0.95087314  0.94059371    -0.32400
S488        S  0.03343066  0.91561418  0.56966480    -0.32400
H489        H  0.02471975  0.96848841  0.57172473     0.28900
H490        H  0.14438047  0.93579673  0.96252985     0.28900
H491        H  0.06802331  0.99417272  0.95109551     0.19500
H492        H  0.08324672  0.86300180  0.55086882     0.19500
C493        C  0.17351924  0.71138783  0.62476995    -0.06300
C494        C  0.18399030  0.76266639  0.62149687    -0.17400
C495        C  0.17896154  0.79259349  0.59034498     0.10900
C496        C  0.16253259  0.77122222  0.56256824    -0.06200
C497        C  0.15128825  0.72074799  0.56666158    -0.17500
C498        C  0.15649421  0.69077070  0.59737508     0.10900
S499        S  0.19515534  0.85613082  0.58669229    -0.32400
S500        S  0.14034494  0.62694570  0.60021256    -0.32400
H501        H  0.13776994  0.62620265  0.63794039     0.28900
H502        H  0.19950588  0.85342896  0.54930442     0.28900
H503        H  0.19726621  0.77836608  0.64245260     0.19500
H504        H  0.13797293  0.70478238  0.54584739     0.19500
C505        C  0.15092125  0.76002168  0.93188397    -0.06300
C506        C  0.15956196  0.78763755  0.90120067    -0.17400
C507        C  0.16771214  0.76087254  0.87019829     0.10900
C508        C  0.16702493  0.70516337  0.86982556    -0.06200
C509        C  0.15665062  0.67799595  0.89983160    -0.17500
C510        C  0.14817810  0.70475616  0.93052764     0.10900
S511        S  0.18055816  0.80006671  0.83337435    -0.32400
S512        S  0.13383958  0.66600531  0.96674977    -0.32400
H513        H  0.11614899  0.70576065  0.97984131     0.28900
H514        H  0.20415206  0.76827869  0.82775096     0.28900
H515        H  0.16128375  0.83018131  0.90203718     0.19500
H516        H  0.15515945  0.63539615  0.89940716     0.19500
C517        C  0.38308564  0.79895340  0.49550590    -0.06300
C518        C  0.37324156  0.84320771  0.97549990    -0.17400
C519        C  0.38867483  0.88948963  0.97441627     0.10900
C520        C  0.41299975  0.89397025  0.49529191    -0.06200
C521        C  0.42107622  0.85206557  0.51788651    -0.17500
C522        C  0.40698312  0.80415424  0.51736576     0.10900
S523        S  0.37781201  0.93968567  0.94268933    -0.32400
S524        S  0.42119042  0.75074040  0.54395973    -0.32400
H525        H  0.41250794  0.71068817  0.52047150     0.28900
H526        H  0.40439735  0.96059062  0.93690641     0.28900
H527        H  0.35475551  0.84043799  0.95888671     0.19500
H528        H  0.43876626  0.85656715  0.53572862     0.19500
C529        C  0.29046575  0.64763618  0.62687646    -0.06300
C530        C  0.27671139  0.67831916  0.60077992    -0.17400
C531        C  0.29086054  0.69832013  0.57112801     0.10900
C532        C  0.31928475  0.68607868  0.56674795    -0.06200
C533        C  0.33340895  0.65737260  0.59355111    -0.17500
C534        C  0.31923081  0.63782034  0.62357009     0.10900
S535        S  0.27143979  0.73880510  0.53965658    -0.32400
S536        S  0.33840635  0.59755447  0.65522671    -0.32400
H537        H  0.31708664  0.56063620  0.66038808     0.28900
H538        H  0.29403231  0.76977124  0.52869408     0.28900
H539        H  0.25473481  0.68688809  0.60358283     0.19500
H540        H  0.35521249  0.64789177  0.59013669     0.19500
C541        C  0.31841514  0.67599428  0.93460093    -0.06300
C542        C  0.29010556  0.68843958  0.93162144    -0.17400
C543        C  0.27477214  0.67428198  0.90138338     0.10900
C544        C  0.28774596  0.64580553  0.87349233    -0.06200
C545        C  0.31633232  0.63467469  0.87581718    -0.17500
C546        C  0.33179066  0.64924492  0.90623680     0.10900
S547        S  0.23902913  0.69576039  0.89944183    -0.32400
S548        S  0.36803318  0.63112122  0.90791516    -0.32400
H549        H  0.36901874  0.62237008  0.94533345     0.28900
H550        H  0.23885497  0.70516067  0.86206504     0.28900
H551        H  0.27992785  0.71023462  0.95292466     0.19500
H552        H  0.32641797  0.61283656  0.85448018     0.19500
C553        C  0.86262889  0.75459687  0.99698814     0.02900
C554        C  0.85307906  0.73259637  0.46624114    -0.13200
C555        C  0.83251662  0.69383086  0.46735416     0.00400
C556        C  0.82209757  0.67729004  0.50057124    -0.11700
C557        C  0.83110543  0.69995863  0.03189113     0.02900
C558        C  0.85178081  0.73857299  0.03042212    -0.11200
H559        H  0.86060577  0.74635540  0.44041097     0.08500
H560        H  0.80569708  0.64821303  0.50141725     0.06100
H561        H  0.85821631  0.75811161  0.05493419     0.05900
C562        C  0.62102299  0.85655467  0.99916306     0.02900
C563        C  0.62690838  0.83265359  0.46567900    -0.13200
C564        C  0.64621754  0.79158194  0.46435057     0.00400
C565        C  0.66036668  0.77613628  0.49560492    -0.11700
C566        C  0.65513998  0.80084449  0.02954006     0.02900
C567        C  0.63563579  0.84184395  0.03053355    -0.11200
H568        H  0.61482434  0.84211509  0.44181137     0.08500
H569        H  0.67449972  0.74272201  0.49487599     0.06100
H570        H  0.63041526  0.85949518  0.05616763     0.05900
C571        C  0.80968323  0.26899698  0.00197300     0.02900
C572        C  0.80177513  0.28785960  0.46881757    -0.13200
C573        C  0.78319814  0.33036870  0.46531569     0.00400
C574        C  0.77210648  0.35380713  0.49611315    -0.11700
C575        C  0.78228126  0.33852636  0.02961740     0.02900
C576        C  0.79836078  0.29278970  0.03263982    -0.11200
H577        H  0.81192833  0.27272804  0.44502633     0.08500
H578        H  0.75859460  0.38795459  0.49349034     0.06100
H579        H  0.80317017  0.27723404  0.05919511     0.05900
N580        N  0.97462988  0.98241918  0.99687603    -0.36800
N581        N  0.92290981  0.03985536  0.99943558    -0.57400
N582        N  0.95393985  0.13745529  0.00412247    -0.36800
N583        N  0.50531859  0.07969377  0.00426636    -0.57400
C584        C  0.95656825  0.94480363  0.98654706     0.26800
C585        C  0.00024221  0.96556446  0.98775990     0.26800
C586        C  0.92781329  0.15590709  0.99897178     0.26800
C587        C  0.97152170  0.17791477  0.99803842     0.26800
C588        C  0.91377950  0.99053905  0.00566691     0.35400
C589        C  0.90251676  0.07261693  0.01032630     0.35400
C590        C  0.52630068  0.04505892  0.00952160     0.35400
C591        C  0.51595528  0.12797608  0.00991244     0.35400
C592        C  0.97087136  0.90377201  0.97030734    -0.22100
C593        C  0.99856004  0.91669674  0.97140006    -0.22100
C594        C  0.92876468  0.20881548  0.98963713    -0.22100
C595        C  0.95621931  0.22293827  0.98982062    -0.22100
C596        C  0.88750098  0.99191394  0.02070959    -0.23100
C597        C  0.88029035  0.04412274  0.02353826    -0.23100
C598        C  0.55047196  0.07120600  0.01844971    -0.23100
C599        C  0.54411705  0.12380303  0.01788600    -0.23100
C600        C  0.92798288  0.94466274  0.99474474    -0.18500
C601        C  0.52455752  0.99075035  0.00268708    -0.18500
C602        C  0.50088053  0.17562585  0.00572849    -0.18500
C603        C  0.90314052  0.12771998  0.00620271    -0.18500
H604        H  0.96234131  0.86765377  0.95969637     0.14400
H605        H  0.51486143  0.89233598  0.96750830     0.14400
H606        H  0.91143433  0.23515487  0.98447383     0.14400
H607        H  0.96379893  0.26231991  0.98497501     0.14400
H608        H  0.87471423  0.95877677  0.02826987     0.12700
H609        H  0.86087537  0.05935194  0.03388937     0.12700
H610        H  0.57082592  0.05435801  0.02348897     0.12700
H611        H  0.55894049  0.15488220  0.02234197     0.12700
H612        H  0.97029478  0.01396423  0.01374159     0.26000
H613        H  0.95913089  0.10131532  0.01553014     0.26000
C614        C  0.56598200  0.36642204  0.00023527     0.02900
C615        C  0.57606110  0.38325912  0.46745025    -0.13200
C616        C  0.59408254  0.42591557  0.46467397     0.00400
C617        C  0.60062882  0.45519756  0.49518557    -0.11700
C618        C  0.59133894  0.43822232  0.02820143     0.02900
C619        C  0.57134663  0.39855921  0.03025974    -0.11200
H620        H  0.57295584  0.35868683  0.44402833     0.08500
H621        H  0.61628932  0.48563472  0.49347736     0.06100
H622        H  0.56161846  0.39052277  0.05588251     0.05900
O623        O  0.78067358  0.63128466  0.31067773    -0.75500
O624        O  0.74852698  0.60162954  0.35089583    -0.54400
C625        C  0.77129081  0.62503624  0.34283670     0.78200
O626        O  0.67919914  0.69487538  0.18679834    -0.60100
O627        O  0.69336538  0.63288342  0.14640275    -0.53100
C628        C  0.68268909  0.67767255  0.15460647     0.70300
O629        O  0.67494018  0.69217744  0.30733469    -0.74600
O630        O  0.69044845  0.63177919  0.34851063    -0.55200
C631        C  0.67848027  0.67539974  0.33969943     0.76300
O632        O  0.78234811  0.63041464  0.18917902    -0.59800
O633        O  0.75044646  0.60200973  0.14812061    -0.52900
C634        C  0.77333536  0.62438765  0.15674765     0.72900
Zr635      Zr  0.76524738  0.61031827  0.24963512     2.54700
O636        O  0.78279319  0.69998603  0.24840014    -0.80300
O637        O  0.81149427  0.57119375  0.25146090    -0.93800
Zr638      Zr  0.68625899  0.66064878  0.24764522     2.64700
O639        O  0.70385419  0.75030634  0.24988120    -0.98700
O640        O  0.63822392  0.69103354  0.24462819    -0.80800
O641        O  0.72559660  0.63668845  0.28312544    -0.84100
O642        O  0.72629716  0.63710419  0.21468926    -2.18800
O643        O  0.74993876  0.43071571  0.18831399    -0.67500
O644        O  0.73496522  0.49256646  0.14771113    -0.52100
C645        C  0.74664600  0.44867180  0.15606301     0.71200
O646        O  0.64392677  0.48961000  0.30716384    -0.60400
O647        O  0.67505712  0.51970512  0.34867567    -0.52400
C648        C  0.65257047  0.49618934  0.33967394     0.73000
O649        O  0.64386553  0.49483550  0.18524605    -0.71800
O650        O  0.67603315  0.52634530  0.14584011    -0.50500
C651        C  0.65310753  0.50329647  0.15322085     0.74400
O652        O  0.74632499  0.42771066  0.31007419    -0.67500
O653        O  0.73241236  0.48932180  0.35094771    -0.54400
C654        C  0.74320071  0.44466556  0.34239453     0.72800
Zr655      Zr  0.73909874  0.46132271  0.24906904     2.77500
O656        O  0.72363406  0.37021713  0.25004605    -0.97900
O657        O  0.78708499  0.43114269  0.25303717    -0.78700
Zr658      Zr  0.66010193  0.51175385  0.24677253     2.70100
O659        O  0.64096059  0.42325645  0.24777413    -0.80000
O660        O  0.61374511  0.55052418  0.24689991    -0.99100
Zr661      Zr  0.71215288  0.56063819  0.31602053     2.21500
Zr662      Zr  0.71331689  0.56184901  0.18121327     2.11100
O663        O  0.69976826  0.48502690  0.21356231    -2.47800
O664        O  0.69905861  0.48543873  0.28219174    -0.79800
O665        O  0.75320090  0.53568387  0.21477873    -0.72000
O666        O  0.67232768  0.58600526  0.28174323    -2.32900
O667        O  0.75258819  0.53522456  0.28385243    -2.29100
O668        O  0.67272721  0.58710479  0.21272796    -0.73700
H669        H  0.73134441  0.66607415  0.19914162     0.78300
H670        H  0.65690094  0.59500356  0.29711602     0.79400
H671        H  0.69512002  0.45658949  0.19748742     0.81600
H672        H  0.76760120  0.52573595  0.30003561     0.79200
H673        H  0.63877840  0.72798514  0.25301899     0.42200
H674        H  0.61242367  0.57021902  0.22386487     0.41200
H675        H  0.65662061  0.40019609  0.24062819     0.40900
H676        H  0.70754359  0.36943714  0.23340607     0.38800
H677        H  0.79767380  0.45707893  0.23872611     0.41900
H678        H  0.82417921  0.60116082  0.24739489     0.36700
H679        H  0.76591682  0.72239263  0.24947940     0.42800
H680        H  0.71458929  0.75470096  0.22739416     0.39300
H681        H  0.73842256  0.35041838  0.23741139     0.44200
H682        H  0.81271415  0.55027173  0.22908899     0.42900
H683        H  0.68722848  0.77293033  0.24641235     0.43000
H684        H  0.60114711  0.52020082  0.24372644     0.43400
C685        C  0.63669499  0.48467492  0.12228815    -0.06300
C686        C  0.60817085  0.49642118  0.12009735    -0.17400
C687        C  0.59261593  0.48299016  0.08947622     0.10900
C688        C  0.60575899  0.45612477  0.06099829    -0.06200
C689        C  0.63399214  0.44298276  0.06391106    -0.17500
C690        C  0.64965140  0.45741015  0.09383886     0.10900
S691        S  0.55654531  0.50224525  0.08800566    -0.32400
S692        S  0.68594930  0.43892717  0.09572334    -0.32400
H693        H  0.68804112  0.41853886  0.06066908     0.28900
H694        H  0.55459566  0.50652878  0.05031634     0.28900
H695        H  0.59822714  0.51783713  0.14173576     0.19500
H696        H  0.64375973  0.42075357  0.04255715     0.19500
C697        C  0.60845907  0.43699606  0.43073863    -0.06300
C698        C  0.59356383  0.46184090  0.40287468    -0.17400
C699        C  0.60714488  0.48090439  0.37228195     0.10900
C700        C  0.63620239  0.47410177  0.36936474    -0.06200
C701        C  0.65074104  0.44687493  0.39654283    -0.17500
C702        C  0.63725855  0.42805479  0.42705728     0.10900
S703        S  0.58656670  0.51668857  0.33956188    -0.32400
S704        S  0.65830766  0.39442671  0.46049684    -0.32400
H705        H  0.63681189  0.36672588  0.47743843     0.28900
H706        H  0.60676912  0.55495951  0.33214019     0.28900
H707        H  0.57147033  0.46888830  0.40587911     0.19500
H708        H  0.67295875  0.44066853  0.39413668     0.19500
C709        C  0.51679424  0.22549189  0.00424606    -0.06300
C710        C  0.53173301  0.24107764  0.03482548    -0.17400
C711        C  0.54952425  0.28437662  0.03357956     0.10900
C712        C  0.54849742  0.31852790  0.00322714    -0.06200
C713        C  0.52961331  0.30778918  0.47431360    -0.17500
C714        C  0.51618780  0.25931764  0.47340812     0.10900
S715        S  0.57588072  0.29000797  0.06829570    -0.32400
S716        S  0.50143736  0.23901909  0.43093772    -0.32400
H717        H  0.00435810  0.18178464  0.44204780     0.28900
H718        H  0.56735807  0.24732530  0.08976110     0.28900
H719        H  0.53113324  0.21648972  0.05871624     0.19500
H720        H  0.52813377  0.33309333  0.45081492     0.19500
C721        C  0.87678446  0.15790005  0.00953007    -0.06300
C722        C  0.85653760  0.14981592  0.48863942    -0.17400
C723        C  0.83298340  0.18204814  0.48542108     0.10900
C724        C  0.83072317  0.22652627  0.00642519    -0.06200
C725        C  0.85151153  0.23283744  0.03277651    -0.17500
C726        C  0.87371690  0.19766694  0.03559315     0.10900
S727        S  0.80709595  0.16338420  0.45272664    -0.32400
S728        S  0.89792543  0.20648111  0.07231134    -0.32400
H729        H  0.90656432  0.15350509  0.07431686     0.28900
H730        H  0.78439545  0.18215129  0.47278859     0.28900
H731        H  0.85969672  0.11828016  0.46948354     0.19500
H732        H  0.85089705  0.26606308  0.05095473     0.19500
C733        C  0.77400216  0.36666182  0.06245511    -0.06300
C734        C  0.75760759  0.34025790  0.08784184    -0.17400
C735        C  0.74896940  0.36523327  0.11936903     0.10900
C736        C  0.75708269  0.41772620  0.12572844    -0.06200
C737        C  0.77391612  0.44368880  0.10065880    -0.17500
C738        C  0.78275397  0.41864869  0.06940173     0.10900
S739        S  0.72675141  0.32870883  0.14929974    -0.32400
S740        S  0.80557089  0.45498859  0.04010743    -0.32400
H741        H  0.82113692  0.41107820  0.02881877     0.28900
H742        H  0.71070890  0.37191406  0.16062707     0.28900
H743        H  0.75099714  0.30025768  0.08263881     0.19500
H744        H  0.78033232  0.48390938  0.10559983     0.19500
C745        C  0.77681487  0.35431950  0.43004395    -0.06300
C746        C  0.75546654  0.33278107  0.40903954    -0.17400
C747        C  0.74417400  0.36085909  0.37978105     0.10900
C748        C  0.75425134  0.41177840  0.37183831    -0.06200
C749        C  0.77643530  0.43197676  0.39185647    -0.17500
C750        C  0.78823913  0.40332839  0.42023087     0.10900
S751        S  0.71625540  0.33069964  0.35492743    -0.32400
S752        S  0.81770459  0.43171551  0.44295984    -0.32400
H753        H  0.82877188  0.38429250  0.45660410     0.28900
H754        H  0.70264971  0.37774730  0.34502491     0.28900
H755        H  0.74667308  0.29510627  0.41654270     0.19500
H756        H  0.78484265  0.47026618  0.38504242     0.19500
C757        C  0.55022000  0.95888460  0.00364499    -0.06300
C758        C  0.57107881  0.96830988  0.47331700    -0.17400
C759        C  0.59545826  0.93825410  0.47322963     0.10900
C760        C  0.59779465  0.89465524  0.00105011    -0.06200
C761        C  0.57829979  0.88856517  0.02881608    -0.17500
C762        C  0.55503913  0.92121768  0.03097752     0.10900
S763        S  0.62065444  0.95275973  0.43871803    -0.32400
S764        S  0.53238473  0.91303590  0.06921443    -0.32400
H765        H  0.52325200  0.96569771  0.07064496     0.28900
H766        H  0.64401897  0.93730580  0.45912325     0.28900
H767        H  0.56756233  0.99733833  0.45226061     0.19500
H768        H  0.58106102  0.85788300  0.04892336     0.19500
C769        C  0.67373983  0.71147285  0.12459098    -0.06300
C770        C  0.68480610  0.76235068  0.12123224    -0.17400
C771        C  0.67937384  0.79325890  0.09054964     0.10900
C772        C  0.66248175  0.77252378  0.06290889    -0.06200
C773        C  0.65063635  0.72262299  0.06722355    -0.17500
C774        C  0.65580750  0.69222549  0.09771896     0.10900
S775        S  0.69510665  0.85749500  0.08812844    -0.32400
S776        S  0.63807962  0.63000844  0.10113366    -0.32400
H777        H  0.63591116  0.63000203  0.13889859     0.28900
H778        H  0.69419319  0.86300719  0.05049176     0.28900
H779        H  0.69850924  0.77726611  0.14199836     0.19500
H780        H  0.63677488  0.70745583  0.04672798     0.19500
C781        C  0.65054774  0.76267127  0.43070108    -0.06300
C782        C  0.66100154  0.79003160  0.40088939    -0.17400
C783        C  0.66978561  0.76308460  0.37023578     0.10900
C784        C  0.66761988  0.70751111  0.36931232    -0.06200
C785        C  0.65540716  0.68083708  0.39832043    -0.17500
C786        C  0.64652710  0.70780231  0.42872545     0.10900
S787        S  0.68540485  0.80167323  0.33488365    -0.32400
S788        S  0.63016031  0.67001516  0.46394594    -0.32400
H789        H  0.61282663  0.71106654  0.47597344     0.28900
H790        H  0.70700486  0.76573837  0.32792623     0.28900
H791        H  0.66379911  0.83231994  0.40234042     0.19500
H792        H  0.65281810  0.63846194  0.39734377     0.19500
C793        C  0.88125504  0.80067794  0.99465989    -0.06300
C794        C  0.87440452  0.84389394  0.47340521    -0.17400
C795        C  0.89008194  0.88996613  0.47248339     0.10900
C796        C  0.91243729  0.89434615  0.99247312    -0.06200
C797        C  0.92083551  0.85194605  0.01447420    -0.17500
C798        C  0.90598803  0.80476547  0.01505225     0.10900
S799        S  0.87979076  0.94033215  0.44054372    -0.32400
S800        S  0.92028193  0.75094756  0.04119770    -0.32400
H801        H  0.90922307  0.71062591  0.01973127     0.28900
H802        H  0.90636983  0.96192552  0.43607688     0.28900
H803        H  0.85626831  0.84111105  0.45615729     0.19500
H804        H  0.93922317  0.85559940  0.03118831     0.19500
C805        C  0.78947214  0.64644113  0.12674254    -0.06300
C806        C  0.77476469  0.67448100  0.10012391    -0.17400
C807        C  0.78806973  0.69466725  0.06987720     0.10900
C808        C  0.81699511  0.68682304  0.06589639    -0.06200
C809        C  0.83195918  0.66024522  0.09300676    -0.17500
C810        C  0.81843312  0.63922082  0.12313302     0.10900
S811        S  0.76664350  0.72883040  0.03708925    -0.32400
S812        S  0.83875105  0.59997956  0.15420727    -0.32400
H813        H  0.81798785  0.56228132  0.16038529     0.28900
H814        H  0.78767475  0.76115289  0.02321596     0.28900
H815        H  0.75255071  0.68050365  0.10282258     0.19500
H816        H  0.85400914  0.65315652  0.08961926     0.19500
C817        C  0.81820625  0.67708420  0.43417858    -0.06300
C818        C  0.79026955  0.69185450  0.43017955    -0.17400
C819        C  0.77505566  0.67779128  0.39975336     0.10900
C820        C  0.78764713  0.64659651  0.37293400    -0.06200
C821        C  0.81593892  0.63340716  0.37616519    -0.17500
C822        C  0.83132832  0.64808464  0.40664837     0.10900
S823        S  0.74013448  0.70329730  0.39597085    -0.32400
S824        S  0.86714928  0.62729727  0.40937129    -0.32400
H825        H  0.86837641  0.62322254  0.44712049     0.28900
H826        H  0.74007126  0.70680256  0.35817059     0.28900
H827        H  0.78034702  0.71550282  0.45075441     0.19500
H828        H  0.82580514  0.60987266  0.35550955     0.19500
C829        C  0.86259334  0.75605686  0.49822985     0.02900
C830        C  0.85259138  0.73143302  0.96520798    -0.13200
C831        C  0.83189370  0.69307486  0.96676373     0.00400
C832        C  0.82189121  0.67642622  0.00011982    -0.11700
C833        C  0.83104510  0.70082882  0.53248840     0.02900
C834        C  0.85136442  0.73996236  0.53138069    -0.11200
H835        H  0.85975767  0.74527902  0.93921214     0.08500
H836        H  0.80551163  0.64732567  0.00119289     0.06100
H837        H  0.85726132  0.75976498  0.55602667     0.05900
C838        C  0.62208475  0.85947001  0.49800843     0.02900
C839        C  0.62610223  0.82958739  0.96697836    -0.13200
C840        C  0.64646173  0.79032356  0.96557132     0.00400
C841        C  0.66152019  0.77712341  0.99663301    -0.11700
C842        C  0.65436237  0.80012782  0.52850266     0.02900
C843        C  0.63606290  0.84307604  0.52947110    -0.11200
H844        H  0.61348970  0.83760908  0.94331872     0.08500
H845        H  0.67647755  0.74503286  0.99590780     0.06100
H846        H  0.63119128  0.86103397  0.55511961     0.05900
C847        C  0.80826111  0.26717061  0.50318568     0.02900
C848        C  0.80351086  0.29036456  0.96773442    -0.13200
C849        C  0.78626873  0.33487408  0.96454162     0.00400
C850        C  0.77569272  0.35876316  0.99553969    -0.11700
C851        C  0.77954722  0.33523152  0.53030065     0.02900
C852        C  0.79624957  0.29042732  0.53362618    -0.11200
H853        H  0.81291422  0.27393303  0.94380201     0.08500
H854        H  0.76291223  0.39393673  0.99316630     0.06100
H855        H  0.80113120  0.27554120  0.56032596     0.05900
N856        N  0.97479142  0.98371997  0.50305723    -0.36800
N857        N  0.92299783  0.04092151  0.50690391    -0.57400
N858        N  0.95367140  0.13887246  0.51521568    -0.36800
N859        N  0.50538377  0.08151253  0.50338518    -0.57400
C860        C  0.95686386  0.94620252  0.49219338     0.26800
C861        C  0.00051397  0.96727470  0.49407599     0.26800
C862        C  0.92755402  0.15750961  0.51035556     0.26800
C863        C  0.97121101  0.17963303  0.50993709     0.26800
C864        C  0.91368367  0.99124566  0.51119555     0.35400
C865        C  0.90225016  0.07304309  0.51765613     0.35400
C866        C  0.52693109  0.04756562  0.50617893     0.35400
C867        C  0.51580270  0.12999933  0.50903381     0.35400
C868        C  0.97137527  0.90556319  0.47577769    -0.22100
C869        C  0.99903063  0.91875578  0.47719308    -0.22100
C870        C  0.92848729  0.21101823  0.50269169    -0.22100
C871        C  0.95589490  0.22515647  0.50325545    -0.22100
C872        C  0.88695020  0.99180451  0.52486606    -0.23100
C873        C  0.87962766  0.04378180  0.52875031    -0.23100
C874        C  0.55122808  0.07444954  0.51352159    -0.23100
C875        C  0.54430782  0.12674675  0.51460628    -0.23100
C876        C  0.92817151  0.94583718  0.49985415    -0.18500
C877        C  0.52539958  0.99321944  0.49917284    -0.18500
C878        C  0.50021408  0.17722062  0.50634302    -0.18500
C879        C  0.90282687  0.12840908  0.51516919    -0.18500
H880        H  0.96300313  0.86954391  0.46479924     0.14400
H881        H  0.51609306  0.89385246  0.46521269     0.14400
H882        H  0.91122344  0.23760915  0.49780621     0.14400
H883        H  0.96348518  0.26472924  0.49918372     0.14400
H884        H  0.87392833  0.95830762  0.53082478     0.12700
H885        H  0.85988308  0.05840137  0.53844736     0.12700
H886        H  0.57198335  0.05840230  0.51651508     0.12700
H887        H  0.55894813  0.15836177  0.51834054     0.12700
H888        H  0.97026219  0.01491164  0.52011036     0.26000
H889        H  0.95893154  0.10181256  0.52505078     0.26000
C890        C  0.56361147  0.37054885  0.50062325     0.02900
C891        C  0.57874309  0.37860183  0.96721509    -0.13200
C892        C  0.59642069  0.42167308  0.96438821     0.00400
C893        C  0.60265326  0.45139425  0.99480951    -0.11700
C894        C  0.58927010  0.44205036  0.52860304     0.02900
C895        C  0.56925046  0.40238056  0.53072443    -0.11200
H896        H  0.57595851  0.35361475  0.94392194     0.08500
H897        H  0.61799571  0.48239540  0.99304706     0.06100
H898        H  0.55980771  0.39392958  0.55647802     0.05900
O899        O  0.77895313  0.63290981  0.81110246    -0.75500
O900        O  0.74699645  0.60215914  0.85109555    -0.54400
C901        C  0.76958503  0.62601204  0.84318999     0.78200
O902        O  0.67724539  0.69497580  0.68637304    -0.60100
O903        O  0.69276540  0.63429596  0.64588151    -0.53100
C904        C  0.68130094  0.67831224  0.65414522     0.70300
O905        O  0.67384882  0.69165101  0.80747607    -0.74600
O906        O  0.68940510  0.63057675  0.84810236    -0.55200
C907        C  0.67741019  0.67434596  0.83974632     0.76300
O908        O  0.78058896  0.63551212  0.68914853    -0.59800
O909        O  0.74982476  0.60412367  0.64764132    -0.52900
C910        C  0.77215780  0.62809888  0.65664006     0.72900
Zr911      Zr  0.76420536  0.61378028  0.74946519     2.54700
O912        O  0.78174994  0.70349876  0.75026021    -0.80300
O913        O  0.81149437  0.57932320  0.74991972    -0.93800
Zr914      Zr  0.68475715  0.66094875  0.74730673     2.64700
O915        O  0.70108728  0.75145511  0.74980320    -0.98700
O916        O  0.63664673  0.69040304  0.74301906    -0.80800
O917        O  0.72425561  0.63812096  0.78282265    -0.84100
O918        O  0.72506447  0.63928818  0.71435000    -2.18800
O919        O  0.74848385  0.43163011  0.68734197    -0.67500
O920        O  0.73437234  0.49454270  0.64706561    -0.52100
C921        C  0.74528203  0.44988383  0.65523067     0.71200
O922        O  0.64444167  0.48794649  0.80662200    -0.60400
O923        O  0.67579062  0.51780501  0.84784057    -0.52400
C924        C  0.65336428  0.49411262  0.83904588     0.73000
O925        O  0.64339302  0.49641259  0.68493175    -0.71800
O926        O  0.67591948  0.52590852  0.64525466    -0.50500
C927        C  0.65270613  0.50392434  0.65287050     0.74400
O928        O  0.74871171  0.42945352  0.80840137    -0.67500
O929        O  0.73392213  0.49034675  0.84926614    -0.54400
C930        C  0.74552493  0.44639001  0.84071067     0.72800
Zr931      Zr  0.73991758  0.46365408  0.74797614     2.77500
O932        O  0.72689007  0.37108008  0.75011046    -0.97900
O933        O  0.78915568  0.44134915  0.74730680    -0.78700
Zr934      Zr  0.66032535  0.51088468  0.74626115     2.70100
O935        O  0.64430554  0.42025092  0.74377610    -0.80000
O936        O  0.61316272  0.54561851  0.74868513    -0.99100
Zr937      Zr  0.71181815  0.56087154  0.81513615     2.21500
Zr938      Zr  0.71281893  0.56358467  0.68066510     2.11100
O939        O  0.70019622  0.48626409  0.71288516    -2.47800
O940        O  0.69958966  0.48541557  0.78130639    -0.79800
O941        O  0.75305901  0.53902582  0.71412012    -0.72000
O942        O  0.67164676  0.58550499  0.78126992    -2.32900
O943        O  0.75256658  0.53766008  0.78308997    -2.29100
O944        O  0.67202442  0.58692498  0.71236028    -0.73700
H945        H  0.72979527  0.66853734  0.69887683     0.78300
H946        H  0.65617613  0.59377424  0.79676733     0.79400
H947        H  0.69563800  0.45779277  0.69679882     0.81600
H948        H  0.76767461  0.52877187  0.79927465     0.79200
H949        H  0.62669190  0.66900920  0.76114111     0.42200
H950        H  0.61172803  0.56976107  0.72772733     0.41200
H951        H  0.66155019  0.39883391  0.74414152     0.40900
H952        H  0.71092638  0.36823831  0.73338138     0.38800
H953        H  0.79688957  0.45793327  0.76921531     0.41900
H954        H  0.81569693  0.57191892  0.77557844     0.36700
H955        H  0.76992598  0.72205507  0.76795529     0.42800
H956        H  0.71514054  0.75405971  0.73050107     0.39300
H957        H  0.74223162  0.35222669  0.73791268     0.44200
H958        H  0.82313055  0.61012632  0.74387288     0.42900
H959        H  0.68520737  0.77289690  0.74093576     0.43000
H960        H  0.60128030  0.51536063  0.74226498     0.43400
C961        C  0.63577518  0.48574642  0.62230131    -0.06300
C962        C  0.60753285  0.49974708  0.62018407    -0.17400
C963        C  0.59147171  0.48663164  0.58995650     0.10900
C964        C  0.60404512  0.45902279  0.56134353    -0.06200
C965        C  0.63197160  0.44351686  0.56425716    -0.17500
C966        C  0.64784078  0.45599905  0.59444416     0.10900
S967        S  0.55547013  0.50660380  0.58958272    -0.32400
S968        S  0.68304057  0.43135145  0.59787093    -0.32400
H969        H  0.68298243  0.40112829  0.56620966     0.28900
H970        H  0.55213332  0.50790441  0.55198826     0.28900
H971        H  0.59816284  0.52223399  0.64174476     0.19500
H972        H  0.64124647  0.42063335  0.54284127     0.19500
C973        C  0.61062969  0.43312261  0.93047221    -0.06300
C974        C  0.59507333  0.45340664  0.90152011    -0.17400
C975        C  0.60826629  0.47352684  0.87098107     0.10900
C976        C  0.63754414  0.47144443  0.86897584    -0.06200
C977        C  0.65283365  0.44868556  0.89736154    -0.17500
C978        C  0.63976409  0.42951637  0.92796253     0.10900
S979        S  0.58687952  0.50529420  0.83728246    -0.32400
S980        S  0.66149086  0.40154140  0.96297721    -0.32400
H981        H  0.64171686  0.36552980  0.97572852     0.28900
H982        H  0.60484098  0.54823738  0.83235695     0.28900
H983        H  0.57268122  0.45651329  0.90369366     0.19500
H984        H  0.67528546  0.44609131  0.89581391     0.19500
C985        C  0.51562494  0.22774345  0.50476978    -0.06300
C986        C  0.53099245  0.24316382  0.53500807    -0.17400
C987        C  0.54823852  0.28730660  0.53374856     0.10900
C988        C  0.54643377  0.32209124  0.50374767    -0.06200
C989        C  0.53197552  0.30433521  0.97348948    -0.17500
C990        C  0.51813871  0.25635181  0.97263702     0.10900
S991        S  0.57494936  0.29333920  0.56793822    -0.32400
S992        S  0.50364388  0.23586899  0.93007237    -0.32400
H993        H  0.01060950  0.18348579  0.93190836     0.28900
H994        H  0.56770608  0.24899590  0.58863352     0.28900
H995        H  0.53112352  0.21791066  0.55859614     0.19500
H996        H  0.53099665  0.32932079  0.94979293     0.19500
C997        C  0.87611608  0.15787434  0.51616606    -0.06300
C998        C  0.85526201  0.14929040  0.98461382    -0.17400
C999        C  0.83167176  0.18176743  0.98396401     0.10900
C1000       C  0.83009477  0.22614803  0.50831253    -0.06200
C1001       C  0.84930667  0.23255473  0.53666881    -0.17500
C1002       C  0.87124789  0.19742025  0.54189291     0.10900
S1003       S  0.80312190  0.16294687  0.95526893    -0.32400
S1004       S  0.89297979  0.20636070  0.58108824    -0.32400
H1005       H  0.90157071  0.15343220  0.58381507     0.28900
H1006       H  0.78232851  0.18509996  0.97714075     0.28900
H1007       H  0.85689451  0.11718175  0.96559012     0.19500
H1008       H  0.84763720  0.26567246  0.55481796     0.19500
C1009       C  0.77175638  0.36454532  0.56281978    -0.06300
C1010       C  0.75790452  0.33778128  0.59050369    -0.17400
C1011       C  0.74922875  0.36417730  0.62139327     0.10900
C1012       C  0.75506402  0.41832413  0.62495480    -0.06200
C1013       C  0.76970225  0.44457285  0.59781923    -0.17500
C1014       C  0.77838869  0.41830528  0.56707914     0.10900
S1015       S  0.72938739  0.32733172  0.65384192    -0.32400
S1016       S  0.79854153  0.45550882  0.53513593    -0.32400
H1017       H  0.81600612  0.41327158  0.52561621     0.28900
H1018       H  0.71081090  0.36850580  0.66192346     0.28900
H1019       H  0.75300839  0.29641692  0.58746570     0.19500
H1020       H  0.77465138  0.48596713  0.60077429     0.19500
C1021       C  0.77988601  0.35878478  0.92921814    -0.06300
C1022       C  0.75946608  0.33550798  0.90757630    -0.17400
C1023       C  0.74790552  0.36271941  0.87813660     0.10900
C1024       C  0.75712528  0.41425610  0.87020939    -0.06200
C1025       C  0.77844452  0.43633516  0.89090000    -0.17500
C1026       C  0.79025946  0.40882453  0.91981199     0.10900
S1027       S  0.72041187  0.33071103  0.85351093    -0.32400
S1028       S  0.81819639  0.44001152  0.94398309    -0.32400
H1029       H  0.83061302  0.39322998  0.95677108     0.28900
H1030       H  0.70698506  0.37652976  0.84090286     0.28900
H1031       H  0.75137195  0.29719010  0.91490132     0.19500
H1032       H  0.78600666  0.47537418  0.88438221     0.19500
C1033       C  0.55130189  0.96187704  0.50054519    -0.06300
C1034       C  0.56951540  0.96525644  0.97589698    -0.17400
C1035       C  0.59361292  0.93459926  0.97478855     0.10900
C1036       C  0.59937896  0.89874099  0.49986815    -0.06200
C1037       C  0.57964637  0.89327657  0.52741213    -0.17500
C1038       C  0.55617291  0.92544994  0.52860509     0.10900
S1039       S  0.61827896  0.94956364  0.93977094    -0.32400
S1040       S  0.53314378  0.91827460  0.56652943    -0.32400
H1041       H  0.52566100  0.97184540  0.56841869     0.28900
H1042       H  0.64194093  0.93485951  0.95982399     0.28900
H1043       H  0.56585269  0.99479316  0.95520743     0.19500
H1044       H  0.58222596  0.86315274  0.54794049     0.19500
C1045       C  0.67215805  0.71171594  0.62409000    -0.06300
C1046       C  0.68281201  0.76287835  0.62086597    -0.17400
C1047       C  0.67779558  0.79312642  0.58982712     0.10900
C1048       C  0.66144344  0.77178259  0.56190426    -0.06200
C1049       C  0.64997681  0.72152163  0.56600406    -0.17500
C1050       C  0.65502938  0.69144116  0.59667970     0.10900
S1051       S  0.69375920  0.85707286  0.58698050    -0.32400
S1052       S  0.63865692  0.62779334  0.59925220    -0.32400
H1053       H  0.63672121  0.62586081  0.63701618     0.28900
H1054       H  0.69446508  0.86030524  0.54921213     0.28900
H1055       H  0.69611765  0.77833713  0.64187564     0.19500
H1056       H  0.63667212  0.70569054  0.54511595     0.19500
C1057       C  0.65080541  0.76071839  0.93214091    -0.06300
C1058       C  0.65883701  0.78839650  0.90122089    -0.17400
C1059       C  0.66689073  0.76175562  0.87012644     0.10900
C1060       C  0.66676146  0.70596849  0.86990549    -0.06200
C1061       C  0.65695881  0.67869754  0.90024674    -0.17500
C1062       C  0.64854420  0.70538105  0.93101906     0.10900
S1063       S  0.67869774  0.80142304  0.83295246    -0.32400
S1064       S  0.63460229  0.66656838  0.96749715    -0.32400
H1065       H  0.61694137  0.70618409  0.98084894     0.28900
H1066       H  0.70287227  0.77122794  0.82742842     0.28900
H1067       H  0.66009371  0.83101127  0.90189959     0.19500
H1068       H  0.65573904  0.63606292  0.89998832     0.19500
C1069       C  0.88144018  0.80193232  0.49658895    -0.06300
C1070       C  0.87322343  0.84276221  0.97214862    -0.17400
C1071       C  0.88888589  0.88870707  0.97003081     0.10900
C1072       C  0.91271094  0.89557310  0.49648086    -0.06200
C1073       C  0.92010351  0.85336164  0.51918276    -0.17500
C1074       C  0.90517497  0.80630414  0.51889797     0.10900
S1075       S  0.87751182  0.93861008  0.93836179    -0.32400
S1076       S  0.91783803  0.75317009  0.54701738    -0.32400
H1077       H  0.90916989  0.71267609  0.52389139     0.28900
H1078       H  0.90396781  0.95969027  0.93194301     0.28900
H1079       H  0.85442788  0.83996906  0.95613356     0.19500
H1080       H  0.93768556  0.85717786  0.53728258     0.19500
C1081       C  0.78860566  0.64982144  0.62702517    -0.06300
C1082       C  0.77436634  0.67872881  0.60044068    -0.17400
C1083       C  0.78809139  0.69814969  0.57032111     0.10900
C1084       C  0.81676502  0.68797845  0.56629739    -0.06200
C1085       C  0.83133046  0.66078487  0.59347889    -0.17500
C1086       C  0.81748497  0.64114699  0.62374936     0.10900
S1087       S  0.76777779  0.73519364  0.53786103    -0.32400
S1088       S  0.83737472  0.60265969  0.65581120    -0.32400
H1089       H  0.81613469  0.56683448  0.66407440     0.28900
H1090       H  0.78939373  0.76899602  0.52754731     0.28900
H1091       H  0.75227264  0.68619203  0.60316161     0.19500
H1092       H  0.85329415  0.65262520  0.59022094     0.19500
C1093       C  0.81709932  0.67669256  0.93397507    -0.06300
C1094       C  0.78898351  0.69067699  0.93097679    -0.17400
C1095       C  0.77332493  0.67636686  0.90103654     0.10900
C1096       C  0.78592408  0.64688468  0.87333043    -0.06200
C1097       C  0.81432330  0.63433708  0.87568154    -0.17500
C1098       C  0.82995398  0.64828956  0.90602264     0.10900
S1099       S  0.73766590  0.69843899  0.89945092    -0.32400
S1100       S  0.86564349  0.62673358  0.90837730    -0.32400
H1101       H  0.86628877  0.61941061  0.94594992     0.28900
H1102       H  0.73663815  0.70505525  0.86183894     0.28900
H1103       H  0.77919964  0.71345803  0.95210401     0.19500
H1104       H  0.82405251  0.61152046  0.85454248     0.19500
loop_ 
_geom_bond_atom_site_label_1 
_geom_bond_atom_site_label_2 
_geom_bond_distance 
_geom_bond_site_symmetry_2 
_ccdc_geom_bond_type 
C1            C6   1.405   1_556  A
C1          C278   1.407       .  A
C1          C241   1.479       .  S
C2            C3   1.399       .  A
C2          C277   1.406       .  A
C2            H7   1.084       .  S
C3            C4   1.397       .  A
C3          C265   1.474       .  S
C4          C281   1.397       .  A
C4            H8   1.085       .  S
C5            C6   1.399       .  A
C5          C280   1.397       .  A
C5          C256   1.470       .  S
C6            H9   1.084       .  S
C10          C15   1.404   1_556  A
C10         C287   1.402       .  A
C10         C208   1.476   1_556  S
C11          C12   1.395       .  A
C11         C286   1.404       .  A
C11          H16   1.083       .  S
C12          C13   1.396       .  A
C12         C229   1.468       .  S
C13         C290   1.397       .  A
C13          H17   1.085       .  S
C14          C15   1.398       .  A
C14         C289   1.398   1_554  A
C14         C220   1.466       .  S
C15          H18   1.084       .  S
C19          C24   1.402       .  A
C19         C296   1.410   1_554  A
C19         C172   1.484       .  S
C20          C21   1.402       .  A
C20         C295   1.410       .  A
C20          H25   1.083       .  S
C21          C22   1.399       .  A
C21         C193   1.472       .  S
C22         C299   1.396       .  A
C22          H26   1.084       .  S
C23          C24   1.395       .  A
C23         C298   1.397   1_554  A
C23         C181   1.470       .  S
C24          H27   1.084       .  S
N28          C33   1.347   1_554  A
N28          C32   1.350   1_554  A
N28          H60   1.040   1_565  S
N29          C36   1.350   1_545  A
N29          C37   1.349       .  A
N30          C35   1.353       .  A
N30          C34   1.352       .  A
N30          H61   1.036       .  S
N31          C38   1.349   1_556  A
N31          C39   1.349   1_556  A
C32          C40   1.387       .  A
C32          C48   1.410   1_556  A
C33          C41   1.387       .  A
C33         C601   1.406   1_556  A
C34          C42   1.387   1_554  A
C34          C51   1.417       .  A
C35          C43   1.388   1_554  A
C35         C602   1.419       .  A
C36          C48   1.411       .  A
C36          C44   1.385       .  A
C37          C51   1.409       .  A
C37          C45   1.385       .  A
C38          C46   1.385       .  A
C38          C49   1.407   1_544  A
C39          C47   1.389       .  A
C39          C50   1.414       .  A
C40          C41   1.375       .  A
C40          H52   1.082       .  S
C41         H605   1.083       .  S
C42          C43   1.371       .  A
C42          H54   1.082       .  S
C43          H55   1.081       .  S
C44          C45   1.373   1_565  A
C44          H56   1.082       .  S
C45          H57   1.082       .  S
C46          C47   1.368       .  A
C46          H58   1.082       .  S
C47          H59   1.081       .  S
C48         C244   1.487   1_554  S
C49         C585   1.408       .  A
C49         C205   1.475       .  S
C50         C587   1.419   1_454  A
C50         C157   1.486       .  S
C51         C169   1.485       .  S
H53         C593   1.082   1_455  S
C62          C67   1.409   1_556  A
C62         C339   1.409       .  A
C62         C160   1.492   1_556  S
C63          C64   1.395       .  A
C63         C338   1.408       .  A
C63          H68   1.083       .  S
C64          C65   1.394       .  A
C64         C145   1.463       .  S
C65         C342   1.396       .  A
C65          H69   1.085       .  S
C66          C67   1.401       .  A
C66         C341   1.397   1_554  A
C66         C136   1.474       .  S
C67          H70   1.081       .  S
O71         Zr83   2.447       .  S
O71          C73   1.288       .  A
O72        Zr109   2.414       .  S
O72          C73   1.285       .  A
C73         C268   1.476       .  S
O74         Zr86   2.437       .  S
O74          C76   1.285       .  A
O75        Zr110   2.402       .  S
O75          C76   1.283       .  A
C76         C217   1.462       .  S
O77         Zr86   2.429       .  S
O77          C79   1.285       .  A
O78        Zr109   2.412       .  S
O78          C79   1.286       .  A
C79         C232   1.470       .  S
O80         Zr83   2.451       .  S
O80          C82   1.289       .  A
O81        Zr110   2.402       .  S
O81          C82   1.283       .  A
C82         C253   1.471       .  S
Zr83         O84   2.436       .  S
Zr83         O85   2.435       .  S
Zr83         O89   2.376       .  S
Zr83         O90   2.373       .  S
Zr83        O113   2.372       .  S
Zr83        O115   2.370       .  S
O84         H127   0.990       .  S
O85         H126   0.990       .  S
O85         H130   0.990       .  S
Zr86         O87   2.435       .  S
Zr86         O88   2.436       .  S
Zr86         O90   2.371       .  S
Zr86         O89   2.379       .  S
Zr86        O114   2.373       .  S
Zr86        O116   2.366       .  S
O87         H128   0.990       .  S
O87         H131   0.990       .  S
O88         H121   0.990       .  S
O89        Zr109   2.376       .  S
O90        Zr110   2.375       .  S
O90         H117   0.966       .  S
O91        Zr103   2.439       .  S
O91          C93   1.286       .  A
O92        Zr110   2.391       .  S
O92          C93   1.281       .  A
C93         C184   1.462       .  S
O94        Zr106   2.440       .  S
O94          C96   1.287       .  A
O95        Zr109   2.401       .  S
O95          C96   1.283       .  A
C96         C148   1.466       .  S
O97        Zr106   2.451       .  S
O97          C99   1.289       .  A
O98        Zr110   2.405       .  S
O98          C99   1.283       .  A
C99         C133   1.474       .  S
O100       Zr103   2.435       .  S
O100        C102   1.286       .  A
O101       Zr109   2.421       .  S
O101        C102   1.286       .  A
C102        C196   1.468       .  S
Zr103       O104   2.434       .  S
Zr103       O105   2.434       .  S
Zr103       O111   2.371       .  S
Zr103       O112   2.369       .  S
Zr103       O115   2.376       .  S
Zr103       O113   2.374       .  S
O104        H124   0.990       .  S
O104        H129   0.990       .  S
O105        H125   0.990       .  S
Zr106       O107   2.433       .  S
Zr106       O108   2.434       .  S
Zr106       O112   2.379       .  S
Zr106       O111   2.373       .  S
Zr106       O116   2.369       .  S
Zr106       O114   2.370       .  S
O107        H123   0.990       .  S
O108        H122   0.990       .  S
O108        H132   0.990       .  S
Zr109       O112   2.377       .  S
Zr109       O114   2.382       .  S
Zr109       O115   2.372       .  S
Zr110       O111   2.378       .  S
Zr110       O113   2.370       .  S
Zr110       O116   2.366       .  S
O111        H119   0.966       .  S
O114        H118   0.966       .  S
O115        H120   0.966       .  S
C133        C134   1.407       .  A
C133        C138   1.411       .  A
C134        C135   1.404       .  A
C134        H143   1.084       .  S
C135        C136   1.411       .  A
C135        S139   1.804       .  S
C136        C137   1.401       .  A
C137        C138   1.392       .  A
C137        H144   1.083       .  S
C138        S140   1.808       .  S
S139        H142   1.405       .  S
S140        H141   1.407       .  S
C145        C146   1.401       .  A
C145        C150   1.410       .  A
C146        C147   1.398       .  A
C146        H155   1.084       .  S
C147        C148   1.414       .  A
C147        S151   1.805       .  S
C148        C149   1.403       .  A
C149        C150   1.392       .  A
C149        H156   1.085       .  S
C150        S152   1.808       .  S
S151        H154   1.407       .  S
S152        H153   1.405       .  S
C157        C158   1.402       .  A
C157        C438   1.409   1_554  A
C158        C159   1.400       .  A
C158        H167   1.083       .  S
C159        C160   1.420       .  A
C159        S163   1.811       .  S
C160        C437   1.409   1_554  A
C161        C162   1.394       .  A
C161        C436   1.409       .  A
C161        H168   1.083       .  S
C162        C433   1.411       .  A
C162        S164   1.806       .  S
S163        H166   1.407       .  S
S164        H717   1.406       .  S
H165        S716   1.406       .  S
C169        C174   1.409       .  A
C169        C446   1.404   1_554  A
C170        C171   1.397       .  A
C170        C445   1.403       .  A
C170        H179   1.084       .  S
C171        C448   1.415       .  A
C171        S175   1.804       .  S
C172        C173   1.408       .  A
C172        C447   1.414   1_554  A
C173        C174   1.393       .  A
C173        H180   1.083       .  S
C174        S176   1.805       .  S
S175        H178   1.407       .  S
S176        H177   1.407       .  S
C181        C182   1.403       .  A
C181        C186   1.412       .  A
C182        C183   1.397       .  A
C182        H191   1.084       .  S
C183        C184   1.411       .  A
C183        S187   1.803       .  S
C184        C185   1.400       .  A
C185        C186   1.390       .  A
C185        H192   1.085       .  S
C186        S188   1.803       .  S
S187        H190   1.406       .  S
S188        H189   1.406       .  S
C193        C194   1.403       .  A
C193        C198   1.410       .  A
C194        C195   1.402       .  A
C194        H203   1.084       .  S
C195        C196   1.414       .  A
C195        S199   1.805       .  S
C196        C197   1.401       .  A
C197        C198   1.393       .  A
C197        H204   1.085       .  S
C198        S200   1.802       .  S
S199        H202   1.406       .  S
S200        H201   1.406       .  S
C205        C210   1.409   1_556  A
C205        C482   1.400       .  A
C206        C207   1.395       .  A
C206        C481   1.399       .  A
C206        H215   1.084       .  S
C207        C484   1.416       .  A
C207        S211   1.804       .  S
C208        C209   1.405       .  A
C208        C483   1.415   1_554  A
C209        C210   1.392       .  A
C209        H216   1.083       .  S
C210        S212   1.805       .  S
S211        H214   1.407       .  S
S212        H213   1.406       .  S
C217        C218   1.404       .  A
C217        C222   1.409       .  A
C218        C219   1.401       .  A
C218        H227   1.084       .  S
C219        C220   1.411       .  A
C219        S223   1.804       .  S
C220        C221   1.401       .  A
C221        C222   1.387       .  A
C221        H228   1.084       .  S
C222        S224   1.805       .  S
S223        H226   1.405       .  S
S224        H225   1.407       .  S
C229        C230   1.401       .  A
C229        C234   1.411       .  A
C230        C231   1.397       .  A
C230        H239   1.084       .  S
C231        C232   1.415       .  A
C231        S235   1.803       .  S
C232        C233   1.403       .  A
C233        C234   1.392       .  A
C233        H240   1.084       .  S
C234        S236   1.806       .  S
S235        H238   1.405       .  S
S236        H237   1.407       .  S
C241        C246   1.414   1_556  A
C241        C518   1.404       .  A
C242        C243   1.394       .  A
C242        C517   1.405       .  A
C242        H251   1.084       .  S
C243        C520   1.414       .  A
C243        S247   1.806       .  S
C244        C245   1.405   1_556  A
C244        C519   1.413       .  A
C245        C246   1.399       .  A
C245        H252   1.084       .  S
C246        S248   1.805       .  S
S247        H250   1.405       .  S
S248        H249   1.407       .  S
C253        C254   1.402       .  A
C253        C258   1.413       .  A
C254        C255   1.392       .  A
C254        H263   1.085       .  S
C255        C256   1.412       .  A
C255        S259   1.806       .  S
C256        C257   1.401       .  A
C257        C258   1.400       .  A
C257        H264   1.084       .  S
C258        S260   1.800       .  S
S259        H262   1.406       .  S
S260        H261   1.407       .  S
C265        C266   1.402       .  A
C265        C270   1.412       .  A
C266        C267   1.393       .  A
C266        H275   1.084       .  S
C267        C268   1.413       .  A
C267        S271   1.803       .  S
C268        C269   1.406       .  A
C269        C270   1.402       .  A
C269        H276   1.084       .  S
C270        S272   1.805       .  S
S271        H274   1.405       .  S
S272        H273   1.406       .  S
C277        C282   1.406       .  A
C277        C517   1.479       .  S
C278        C279   1.400       .  A
C278        H283   1.084       .  S
C279        C280   1.397   1_556  A
C279        C541   1.473       .  S
C280        H284   1.085       .  S
C281        C282   1.398       .  A
C281        C532   1.470       .  S
C282        H285   1.084       .  S
C286        C291   1.407       .  A
C286        C484   1.480       .  S
C287        C288   1.395       .  A
C287        H292   1.084       .  S
C288        C289   1.397       .  A
C288        C505   1.469       .  S
C289        H293   1.085       .  S
C290        C291   1.399       .  A
C290        C496   1.470       .  S
C291        H294   1.084       .  S
C295        C300   1.402       .  A
C295        C448   1.481       .  S
C296        C297   1.403       .  A
C296        H301   1.083       .  S
C297        C298   1.398       .  A
C297        C469   1.472       .  S
C298        H302   1.084       .  S
C299        C300   1.392       .  A
C299        C457   1.468       .  S
C300        H303   1.084       .  S
N304        C309   1.349       .  A
N304        C308   1.352       .  A
N304        H336   1.039   1_565  S
N305        C312   1.348   1_545  A
N305        C313   1.346       .  A
N306        C311   1.354       .  A
N306        C310   1.352       .  A
N306        H337   1.037       .  S
N307        C314   1.350       .  A
N307        C315   1.350       .  A
C308        C316   1.387       .  A
C308        C324   1.412       .  A
C309        C877   1.411       .  A
C309        C317   1.387       .  A
C310        C318   1.387       .  A
C310        C327   1.415       .  A
C311        C878   1.418       .  A
C311        C319   1.387       .  A
C312        C324   1.408       .  A
C312        C320   1.386       .  A
C313        C327   1.404       .  A
C313        C321   1.386       .  A
C314        C322   1.384       .  A
C314        C325   1.408   1_545  A
C315        C323   1.389       .  A
C315        C326   1.415       .  A
C316        C317   1.375       .  A
C316        H328   1.082       .  S
C317        H881   1.082       .  S
C318        C319   1.369       .  A
C318        H330   1.082       .  S
C319        H331   1.081       .  S
C320        C321   1.371   1_565  A
C320        H332   1.082       .  S
C321        H333   1.082       .  S
C322        C323   1.368       .  A
C322        H334   1.082       .  S
C323        H335   1.080       .  S
C324        C520   1.484       .  S
C325        C861   1.409       .  A
C325        C481   1.477       .  S
C326        C863   1.418   1_455  A
C326        C433   1.486       .  S
C327        C445   1.478       .  S
H329        C869   1.083   1_455  S
C338        C343   1.409       .  A
C338        C436   1.492       .  S
C339        C340   1.395       .  A
C339        H344   1.083       .  S
C340        C341   1.393       .  A
C340        C421   1.466       .  S
C341        H345   1.085       .  S
C342        C343   1.400       .  A
C342        C412   1.474       .  S
C343        H346   1.081       .  S
O347       Zr359   2.446       .  S
O347        C349   1.287       .  A
O348       Zr385   2.406       .  S
O348        C349   1.284       .  A
C349        C544   1.471       .  S
O350       Zr362   2.436       .  S
O350        C352   1.285       .  A
O351       Zr386   2.402       .  S
O351        C352   1.282       .  A
C352        C493   1.462       .  S
O353       Zr362   2.428       .  S
O353        C355   1.285       .  A
O354       Zr385   2.406       .  S
O354        C355   1.284       .  A
C355        C508   1.470       .  S
O356       Zr359   2.445       .  S
O356        C358   1.288       .  A
O357       Zr386   2.402       .  S
O357        C358   1.283       .  A
C358        C529   1.467       .  S
Zr359       O360   2.434       .  S
Zr359       O361   2.437       .  S
Zr359       O365   2.378       .  S
Zr359       O366   2.373       .  S
Zr359       O389   2.372       .  S
Zr359       O391   2.368       .  S
O360        H403   0.990       .  S
O361        H402   0.990       .  S
O361        H406   0.990       .  S
Zr362       O363   2.435       .  S
Zr362       O364   2.432       .  S
Zr362       O366   2.363       .  S
Zr362       O365   2.375       .  S
Zr362       O390   2.375       .  S
Zr362       O392   2.373       .  S
O363        H404   0.990       .  S
O363        H407   0.990       .  S
O364        H397   0.990       .  S
O365       Zr385   2.376       .  S
O366       Zr386   2.372       .  S
O366        H393   0.965       .  S
O367       Zr379   2.436       .  S
O367        C369   1.286       .  A
O368       Zr386   2.392       .  S
O368        C369   1.281       .  A
C369        C460   1.460       .  S
O370       Zr382   2.442       .  S
O370        C372   1.287       .  A
O371       Zr385   2.393       .  S
O371        C372   1.282       .  A
C372        C424   1.468       .  S
O373       Zr382   2.442       .  S
O373        C375   1.287       .  A
O374       Zr386   2.407       .  S
O374        C375   1.284       .  A
C375        C409   1.472       .  S
O376       Zr379   2.438       .  S
O376        C378   1.286       .  A
O377       Zr385   2.420       .  S
O377        C378   1.286       .  A
C378        C472   1.468       .  S
Zr379       O380   2.434       .  S
Zr379       O381   2.433       .  S
Zr379       O387   2.376       .  S
Zr379       O388   2.369       .  S
Zr379       O391   2.369       .  S
Zr379       O389   2.374       .  S
O380        H400   0.990       .  S
O380        H405   0.990       .  S
O381        H401   0.990       .  S
Zr382       O383   2.434       .  S
Zr382       O384   2.434       .  S
Zr382       O388   2.374       .  S
Zr382       O387   2.374       .  S
Zr382       O392   2.373       .  S
Zr382       O390   2.367       .  S
O383        H399   0.990       .  S
O384        H398   0.990       .  S
O384        H408   0.990       .  S
Zr385       O388   2.372       .  S
Zr385       O390   2.381       .  S
Zr385       O391   2.372       .  S
Zr386       O387   2.378       .  S
Zr386       O389   2.374       .  S
Zr386       O392   2.370       .  S
O387        H395   0.965       .  S
O390        H394   0.966       .  S
O391        H396   0.967       .  S
C409        C410   1.406       .  A
C409        C414   1.410       .  A
C410        C411   1.403       .  A
C410        H419   1.084       .  S
C411        C412   1.411       .  A
C411        S415   1.802       .  S
C412        C413   1.402       .  A
C413        C414   1.394       .  A
C413        H420   1.083       .  S
C414        S416   1.808       .  S
S415        H418   1.406       .  S
S416        H417   1.407       .  S
C421        C422   1.402       .  A
C421        C426   1.409       .  A
C422        C423   1.399       .  A
C422        H431   1.084       .  S
C423        C424   1.413       .  A
C423        S427   1.802       .  S
C424        C425   1.403       .  A
C425        C426   1.390       .  A
C425        H432   1.085       .  S
C426        S428   1.804       .  S
S427        H430   1.406       .  S
S428        H429   1.406       .  S
C433        C434   1.400       .  A
C434        C435   1.399       .  A
C434        H443   1.083       .  S
C435        C436   1.421       .  A
C435        S439   1.812       .  S
C437        C438   1.393       .  A
C437        H444   1.083       .  S
C438        S440   1.805       .  S
S439        H442   1.406       .  S
S440        H993   1.407       .  S
H441        S992   1.406       .  S
C445        C450   1.407       .  A
C446        C447   1.399       .  A
C446        H455   1.084       .  S
C447        S451   1.803       .  S
C448        C449   1.409       .  A
C449        C450   1.389       .  A
C449        H456   1.083       .  S
C450        S452   1.807       .  S
S451        H454   1.407       .  S
S452        H453   1.407       .  S
C457        C458   1.402       .  A
C457        C462   1.412       .  A
C458        C459   1.395       .  A
C458        H467   1.084       .  S
C459        C460   1.411       .  A
C459        S463   1.804       .  S
C460        C461   1.401       .  A
C461        C462   1.391       .  A
C461        H468   1.085       .  S
C462        S464   1.803       .  S
S463        H466   1.405       .  S
S464        H465   1.407       .  S
C469        C470   1.403       .  A
C469        C474   1.411       .  A
C470        C471   1.402       .  A
C470        H479   1.084       .  S
C471        C472   1.413       .  A
C471        S475   1.803       .  S
C472        C473   1.400       .  A
C473        C474   1.394       .  A
C473        H480   1.085       .  S
C474        S476   1.803       .  S
S475        H478   1.406       .  S
S476        H477   1.405       .  S
C481        C486   1.408       .  A
C482        C483   1.395       .  A
C482        H491   1.084       .  S
C483        S487   1.805       .  S
C484        C485   1.406       .  A
C485        C486   1.394       .  A
C485        H492   1.083       .  S
C486        S488   1.804       .  S
S487        H490   1.407       .  S
S488        H489   1.406       .  S
C493        C494   1.404       .  A
C493        C498   1.409       .  A
C494        C495   1.400       .  A
C494        H503   1.084       .  S
C495        C496   1.410       .  A
C495        S499   1.801       .  S
C496        C497   1.402       .  A
C497        C498   1.389       .  A
C497        H504   1.084       .  S
C498        S500   1.804       .  S
S499        H502   1.407       .  S
S500        H501   1.407       .  S
C505        C506   1.401       .  A
C505        C510   1.411       .  A
C506        C507   1.396       .  A
C506        H515   1.084       .  S
C507        C508   1.415       .  A
C507        S511   1.801       .  S
C508        C509   1.403       .  A
C509        C510   1.391       .  A
C509        H516   1.084       .  S
C510        S512   1.805       .  S
S511        H514   1.406       .  S
S512        H513   1.406       .  S
C517        C522   1.413       .  A
C518        C519   1.395       .  A
C518        H527   1.084       .  S
C519        S523   1.805       .  S
C520        C521   1.404       .  A
C521        C522   1.397       .  A
C521        H528   1.084       .  S
C522        S524   1.803       .  S
S523        H526   1.406       .  S
S524        H525   1.407       .  S
C529        C530   1.402       .  A
C529        C534   1.412       .  A
C530        C531   1.393       .  A
C530        H539   1.085       .  S
C531        C532   1.412       .  A
C531        S535   1.807       .  S
C532        C533   1.402       .  A
C533        C534   1.400       .  A
C533        H540   1.084       .  S
C534        S536   1.802       .  S
S535        H538   1.407       .  S
S536        H537   1.407       .  S
C541        C542   1.401       .  A
C541        C546   1.411       .  A
C542        C543   1.391       .  A
C542        H551   1.084       .  S
C543        C544   1.411       .  A
C543        S547   1.803       .  S
C544        C545   1.406       .  A
C545        C546   1.403       .  A
C545        H552   1.084       .  S
C546        S548   1.803       .  S
S547        H550   1.407       .  S
S548        H549   1.406       .  S
C553        C830   1.406       .  A
C553        C558   1.408   1_556  A
C553        C793   1.481       .  S
C554        C829   1.407       .  A
C554        C555   1.401       .  A
C554        H559   1.084       .  S
C555        C556   1.397       .  A
C555        C817   1.475       .  S
C556        C833   1.397       .  A
C556        H560   1.085       .  S
C557        C832   1.397       .  A
C557        C558   1.403       .  A
C557        C808   1.474       .  S
C558        H561   1.084       .  S
C562        C839   1.402       .  A
C562        C567   1.406   1_556  A
C562        C760   1.476   1_556  S
C563        C838   1.402       .  A
C563        C564   1.394       .  A
C563        H568   1.083       .  S
C564        C565   1.397       .  A
C564        C781   1.467       .  S
C565        C842   1.398       .  A
C565        H569   1.085       .  S
C566        C841   1.399   1_554  A
C566        C567   1.398       .  A
C566        C772   1.470       .  S
C567        H570   1.084       .  S
C571        C848   1.410   1_554  A
C571        C576   1.402       .  A
C571        C724   1.483       .  S
C572        C847   1.411       .  A
C572        C573   1.403       .  A
C572        H577   1.082       .  S
C573        C574   1.398       .  A
C573        C745   1.472       .  S
C574        C851   1.397       .  A
C574        H578   1.084       .  S
C575        C850   1.398   1_554  A
C575        C576   1.395       .  A
C575        C733   1.471       .  S
C576        H579   1.084       .  S
N580        C585   1.348   1_655  A
N580        C584   1.351       .  A
N580        H612   1.040   1_566  S
N581        C588   1.349   1_546  A
N581        C589   1.348   1_556  A
N582        C587   1.354   1_554  A
N582        C586   1.352   1_554  A
N582        H613   1.037       .  S
N583        C590   1.348       .  A
N583        C591   1.348       .  A
C584        C592   1.387       .  A
C584        C600   1.411       .  A
C585        C593   1.386   1_455  A
C586        C594   1.387       .  A
C586        C603   1.417   1_556  A
C587        C595   1.388       .  A
C588        C600   1.409   1_554  A
C588        C596   1.386       .  A
C589        C603   1.407       .  A
C589        C597   1.386       .  A
C590        C598   1.383       .  A
C590        C601   1.406   1_545  A
C591        C599   1.390       .  A
C591        C602   1.414       .  A
C592        C593   1.376       .  A
C592        H604   1.082       .  S
C594        C595   1.372       .  A
C594        H606   1.082       .  S
C595        H607   1.081       .  S
C596        C597   1.373   1_565  A
C596        H608   1.082       .  S
C597        H609   1.082       .  S
C598        C599   1.368       .  A
C598        H610   1.082       .  S
C599        H611   1.080       .  S
C600        C796   1.487       .  S
C601        C757   1.473       .  S
C602        C709   1.485       .  S
C603        C721   1.484       .  S
C614        C891   1.408   1_554  A
C614        C619   1.408       .  A
C614        C712   1.487       .  S
C615        C890   1.409       .  A
C615        C616   1.396       .  A
C615        H620   1.083       .  S
C616        C617   1.394       .  A
C616        C697   1.467       .  S
C617        C894   1.398       .  A
C617        H621   1.085       .  S
C618        C893   1.396   1_554  A
C618        C619   1.399       .  A
C618        C688   1.474       .  S
C619        H622   1.081       .  S
O623       Zr635   2.444       .  S
O623        C625   1.288       .  A
O624       Zr661   2.418       .  S
O624        C625   1.286       .  A
C625        C820   1.474       .  S
O626       Zr638   2.438       .  S
O626        C628   1.286       .  A
O627       Zr662   2.407       .  S
O627        C628   1.283       .  A
C628        C769   1.465       .  S
O629       Zr638   2.423       .  S
O629        C631   1.283       .  A
O630       Zr661   2.412       .  S
O630        C631   1.286       .  A
C631        C784   1.468       .  S
O632       Zr635   2.447       .  S
O632        C634   1.288       .  A
O633       Zr662   2.403       .  S
O633        C634   1.283       .  A
C634        C805   1.471       .  S
Zr635       O636   2.433       .  S
Zr635       O637   2.434       .  S
Zr635       O641   2.377       .  S
Zr635       O642   2.371       .  S
Zr635       O665   2.373       .  S
Zr635       O667   2.370       .  S
O636        H679   0.990       .  S
O637        H678   0.990       .  S
O637        H682   0.990       .  S
Zr638       O639   2.435       .  S
Zr638       O640   2.436       .  S
Zr638       O642   2.363       .  S
Zr638       O641   2.377       .  S
Zr638       O666   2.376       .  S
Zr638       O668   2.371       .  S
O639        H680   0.990       .  S
O639        H683   0.990       .  S
O640        H673   0.990       .  S
O641       Zr661   2.374       .  S
O642       Zr662   2.370       .  S
O642        H669   0.966       .  S
O643       Zr655   2.447       .  S
O643        C645   1.288       .  A
O644       Zr662   2.395       .  S
O644        C645   1.281       .  A
C645        C736   1.465       .  S
O646       Zr658   2.441       .  S
O646        C648   1.287       .  A
O647       Zr661   2.402       .  S
O647        C648   1.284       .  A
C648        C700   1.469       .  S
O649       Zr658   2.452       .  S
O649        C651   1.289       .  A
O650       Zr662   2.403       .  S
O650        C651   1.283       .  A
C651        C685   1.473       .  S
O652       Zr655   2.439       .  S
O652        C654   1.286       .  A
O653       Zr661   2.420       .  S
O653        C654   1.286       .  A
C654        C748   1.468       .  S
Zr655       O656   2.434       .  S
Zr655       O657   2.434       .  S
Zr655       O663   2.376       .  S
Zr655       O664   2.370       .  S
Zr655       O667   2.375       .  S
Zr655       O665   2.376       .  S
O656        H676   0.989       .  S
O656        H681   0.990       .  S
O657        H677   0.989       .  S
Zr658       O659   2.434       .  S
Zr658       O660   2.434       .  S
Zr658       O664   2.377       .  S
Zr658       O663   2.375       .  S
Zr658       O668   2.371       .  S
Zr658       O666   2.370       .  S
O659        H675   0.990       .  S
O660        H674   0.990       .  S
O660        H684   0.990       .  S
Zr661       O664   2.377       .  S
Zr661       O666   2.381       .  S
Zr661       O667   2.376       .  S
Zr662       O663   2.381       .  S
Zr662       O665   2.375       .  S
Zr662       O668   2.369       .  S
O663        H671   0.966       .  S
O666        H670   0.966       .  S
O667        H672   0.967       .  S
C685        C686   1.406       .  A
C685        C690   1.411       .  A
C686        C687   1.404       .  A
C686        H695   1.084       .  S
C687        C688   1.411       .  A
C687        S691   1.802       .  S
C688        C689   1.402       .  A
C689        C690   1.392       .  A
C689        H696   1.083       .  S
C690        S692   1.808       .  S
S691        H694   1.406       .  S
S692        H693   1.407       .  S
C697        C698   1.402       .  A
C697        C702   1.411       .  A
C698        C699   1.399       .  A
C698        H707   1.084       .  S
C699        C700   1.414       .  A
C699        S703   1.803       .  S
C700        C701   1.403       .  A
C701        C702   1.392       .  A
C701        H708   1.085       .  S
C702        S704   1.807       .  S
S703        H706   1.406       .  S
S704        H705   1.404       .  S
C709        C710   1.402       .  A
C709        C990   1.410   1_554  A
C710        C711   1.399       .  A
C710        H719   1.083       .  S
C711        C712   1.419       .  A
C711        S715   1.812       .  S
C712        C989   1.408   1_554  A
C713        C988   1.408       .  A
C713        C714   1.394       .  A
C713        H720   1.083       .  S
C714        C985   1.411       .  A
C714        S716   1.805       .  S
S715        H718   1.406       .  S
C721        C998   1.405   1_554  A
C721        C726   1.409       .  A
C722        C997   1.404       .  A
C722        C723   1.399       .  A
C722        H731   1.084       .  S
C723       C1000   1.415       .  A
C723        S727   1.804       .  S
C724        C999   1.413   1_554  A
C724        C725   1.407       .  A
C725        C726   1.392       .  A
C725        H732   1.083       .  S
C726        S728   1.806       .  S
S727        H730   1.407       .  S
S728        H729   1.407       .  S
C733        C734   1.403       .  A
C733        C738   1.412       .  A
C734        C735   1.397       .  A
C734        H743   1.084       .  S
C735        C736   1.412       .  A
C735        S739   1.803       .  S
C736        C737   1.402       .  A
C737        C738   1.393       .  A
C737        H744   1.085       .  S
C738        S740   1.804       .  S
S739        H742   1.405       .  S
S740        H741   1.406       .  S
C745        C746   1.403       .  A
C745        C750   1.410       .  A
C746        C747   1.402       .  A
C746        H755   1.084       .  S
C747        C748   1.414       .  A
C747        S751   1.804       .  S
C748        C749   1.400       .  A
C749        C750   1.394       .  A
C749        H756   1.084       .  S
C750        S752   1.804       .  S
S751        H754   1.405       .  S
S752        H753   1.405       .  S
C757       C1034   1.400   1_554  A
C757        C762   1.409       .  A
C758       C1033   1.401       .  A
C758        C759   1.396       .  A
C758        H767   1.084       .  S
C759       C1036   1.417       .  A
C759        S763   1.806       .  S
C760       C1035   1.416   1_554  A
C760        C761   1.406       .  A
C761        C762   1.392       .  A
C761        H768   1.084       .  S
C762        S764   1.806       .  S
S763        H766   1.407       .  S
S764        H765   1.406       .  S
C769        C770   1.405       .  A
C769        C774   1.408       .  A
C770        C771   1.403       .  A
C770        H779   1.084       .  S
C771        C772   1.413       .  A
C771        S775   1.804       .  S
C772        C773   1.401       .  A
C773        C774   1.388       .  A
C773        H780   1.084       .  S
C774        S776   1.804       .  S
S775        H778   1.404       .  S
S776        H777   1.406       .  S
C781        C782   1.401       .  A
C781        C786   1.410       .  A
C782        C783   1.396       .  A
C782        H791   1.084       .  S
C783        C784   1.416       .  A
C783        S787   1.804       .  S
C784        C785   1.403       .  A
C785        C786   1.390       .  A
C785        H792   1.084       .  S
C786        S788   1.805       .  S
S787        H790   1.405       .  S
S788        H789   1.407       .  S
C793       C1070   1.405       .  A
C793        C798   1.413   1_556  A
C794       C1069   1.405       .  A
C794        C795   1.396       .  A
C794        H803   1.084       .  S
C795       C1072   1.413       .  A
C795        S799   1.805       .  S
C796       C1071   1.413       .  A
C796        C797   1.405   1_556  A
C797        C798   1.399       .  A
C797        H804   1.084       .  S
C798        S800   1.804       .  S
S799        H802   1.406       .  S
S800        H801   1.406       .  S
C805        C806   1.402       .  A
C805        C810   1.413       .  A
C806        C807   1.392       .  A
C806        H815   1.085       .  S
C807        C808   1.414       .  A
C807        S811   1.808       .  S
C808        C809   1.403       .  A
C809        C810   1.402       .  A
C809        H816   1.084       .  S
C810        S812   1.802       .  S
S811        H814   1.405       .  S
S812        H813   1.407       .  S
C817        C818   1.402       .  A
C817        C822   1.412       .  A
C818        C819   1.393       .  A
C818        H827   1.084       .  S
C819        C820   1.412       .  A
C819        S823   1.803       .  S
C820        C821   1.406       .  A
C821        C822   1.403       .  A
C821        H828   1.084       .  S
C822        S824   1.803       .  S
S823        H826   1.406       .  S
S824        H825   1.406       .  S
C829        C834   1.406       .  A
C829       C1069   1.482       .  S
C830        C831   1.399       .  A
C830        H835   1.084       .  S
C831        C832   1.395   1_556  A
C831       C1093   1.471       .  S
C832        H836   1.085       .  S
C833        C834   1.399       .  A
C833       C1084   1.470       .  S
C834        H837   1.084       .  S
C838        C843   1.406       .  A
C838       C1036   1.477       .  S
C839        C840   1.395       .  A
C839        H844   1.084       .  S
C840        C841   1.398       .  A
C840       C1057   1.469       .  S
C841        H845   1.085       .  S
C842        C843   1.398       .  A
C842       C1048   1.469       .  S
C843        H846   1.084       .  S
C847        C852   1.403       .  A
C847       C1000   1.486       .  S
C848        C849   1.402       .  A
C848        H853   1.083       .  S
C849        C850   1.400       .  A
C849       C1021   1.473       .  S
C850        H854   1.084       .  S
C851        C852   1.394       .  A
C851       C1009   1.470       .  S
C852        H855   1.084       .  S
N856        C861   1.348   1_655  A
N856        C860   1.351       .  A
N856        H888   1.039   1_565  S
N857        C864   1.350   1_545  A
N857        C865   1.349       .  A
N858        C863   1.354       .  A
N858        C862   1.352       .  A
N858        H889   1.037       .  S
N859        C866   1.348       .  A
N859        C867   1.349       .  A
C860        C868   1.387       .  A
C860        C876   1.412       .  A
C861        C869   1.387   1_455  A
C862        C870   1.388       .  A
C862        C879   1.417       .  A
C863        C871   1.388       .  A
C864        C876   1.411       .  A
C864        C872   1.386       .  A
C865        C879   1.409       .  A
C865        C873   1.385       .  A
C866        C874   1.385       .  A
C866        C877   1.407   1_545  A
C867        C875   1.389       .  A
C867        C878   1.413       .  A
C868        C869   1.376       .  A
C868        H880   1.082       .  S
C870        C871   1.370       .  A
C870        H882   1.082       .  S
C871        H883   1.081       .  S
C872        C873   1.372   1_565  A
C872        H884   1.082       .  S
C873        H885   1.082       .  S
C874        C875   1.368       .  A
C874        H886   1.082       .  S
C875        H887   1.081       .  S
C876       C1072   1.487       .  S
C877       C1033   1.476       .  S
C878        C985   1.487       .  S
C879        C997   1.485       .  S
C890        C895   1.409       .  A
C890        C988   1.491       .  S
C891        C892   1.394       .  A
C891        H896   1.083       .  S
C892        C893   1.394       .  A
C892        C973   1.464       .  S
C893        H897   1.085       .  S
C894        C895   1.401       .  A
C894        C964   1.474       .  S
C895        H898   1.082       .  S
O899       Zr911   2.445       .  S
O899        C901   1.287       .  A
O900       Zr937   2.402       .  S
O900        C901   1.283       .  A
C901       C1096   1.468       .  S
O902       Zr914   2.443       .  S
O902        C904   1.286       .  A
O903       Zr938   2.402       .  S
O903        C904   1.282       .  A
C904       C1045   1.463       .  S
O905       Zr914   2.428       .  S
O905        C907   1.285       .  A
O906       Zr937   2.409       .  S
O906        C907   1.285       .  A
C907       C1060   1.473       .  S
O908       Zr911   2.439       .  S
O908        C910   1.287       .  A
O909       Zr938   2.401       .  S
O909        C910   1.283       .  A
C910       C1081   1.465       .  S
Zr911       O912   2.434       .  S
Zr911       O913   2.434       .  S
Zr911       O917   2.373       .  S
Zr911       O918   2.373       .  S
Zr911       O941   2.375       .  S
Zr911       O943   2.367       .  S
O912        H955   0.990       .  S
O913        H954   0.990       .  S
O913        H958   0.990       .  S
Zr914       O915   2.435       .  S
Zr914       O916   2.435       .  S
Zr914       O918   2.362       .  S
Zr914       O917   2.377       .  S
Zr914       O942   2.378       .  S
Zr914       O944   2.371       .  S
O915        H956   0.990       .  S
O915        H959   0.990       .  S
O916        H949   0.990       .  S
O917       Zr937   2.375       .  S
O918       Zr938   2.374       .  S
O918        H945   0.966       .  S
O919       Zr931   2.433       .  S
O919        C921   1.285       .  A
O920       Zr938   2.390       .  S
O920        C921   1.281       .  A
C921       C1012   1.461       .  S
O922       Zr934   2.440       .  S
O922        C924   1.287       .  A
O923       Zr937   2.389       .  S
O923        C924   1.281       .  A
C924        C976   1.467       .  S
O925       Zr934   2.446       .  S
O925        C927   1.288       .  A
O926       Zr938   2.411       .  S
O926        C927   1.284       .  A
C927        C961   1.472       .  S
O928       Zr931   2.436       .  S
O928        C930   1.286       .  A
O929       Zr937   2.427       .  S
O929        C930   1.287       .  A
C930       C1024   1.469       .  S
Zr931       O932   2.437       .  S
Zr931       O933   2.435       .  S
Zr931       O939   2.376       .  S
Zr931       O940   2.371       .  S
Zr931       O943   2.373       .  S
Zr931       O941   2.375       .  S
O932        H952   0.990       .  S
O932        H957   0.990       .  S
O933        H953   0.990       .  S
Zr934       O935   2.433       .  S
Zr934       O936   2.433       .  S
Zr934       O940   2.376       .  S
Zr934       O939   2.372       .  S
Zr934       O944   2.371       .  S
Zr934       O942   2.368       .  S
O935        H951   0.990       .  S
O936        H950   0.990       .  S
O936        H960   0.990       .  S
Zr937       O940   2.372       .  S
Zr937       O942   2.382       .  S
Zr937       O943   2.372       .  S
Zr938       O939   2.377       .  S
Zr938       O941   2.376       .  S
Zr938       O944   2.368       .  S
O939        H947   0.966       .  S
O942        H946   0.966       .  S
O943        H948   0.967       .  S
C961        C962   1.405       .  A
C961        C966   1.409       .  A
C962        C963   1.403       .  A
C962        H971   1.084       .  S
C963        C964   1.412       .  A
C963        S967   1.803       .  S
C964        C965   1.403       .  A
C965        C966   1.393       .  A
C965        H972   1.083       .  S
C966        S968   1.807       .  S
S967        H970   1.405       .  S
S968        H969   1.407       .  S
C973        C974   1.402       .  A
C973        C978   1.409       .  A
C974        C975   1.398       .  A
C974        H983   1.084       .  S
C975        C976   1.413       .  A
C975        S979   1.802       .  S
C976        C977   1.403       .  A
C977        C978   1.389       .  A
C977        H984   1.085       .  S
C978        S980   1.806       .  S
S979        H982   1.407       .  S
S980        H981   1.406       .  S
C985        C986   1.401       .  A
C986        C987   1.400       .  A
C986        H995   1.083       .  S
C987        C988   1.420       .  A
C987        S991   1.811       .  S
C989        C990   1.392       .  A
C989        H996   1.083       .  S
C990        S992   1.805       .  S
S991        H994   1.406       .  S
C997       C1002   1.408       .  A
C998        C999   1.400       .  A
C998       H1007   1.084       .  S
C999       S1003   1.804       .  S
C1000      C1001   1.409       .  A
C1001      C1002   1.391       .  A
C1001      H1008   1.083       .  S
C1002      S1004   1.805       .  S
S1003      H1006   1.408       .  S
S1004      H1005   1.406       .  S
C1009      C1010   1.403       .  A
C1009      C1014   1.413       .  A
C1010      C1011   1.395       .  A
C1010      H1019   1.084       .  S
C1011      C1012   1.411       .  A
C1011      S1015   1.802       .  S
C1012      C1013   1.400       .  A
C1013      C1014   1.389       .  A
C1013      H1020   1.085       .  S
C1014      S1016   1.803       .  S
S1015      H1018   1.406       .  S
S1016      H1017   1.406       .  S
C1021      C1022   1.403       .  A
C1021      C1026   1.411       .  A
C1022      C1023   1.402       .  A
C1022      H1031   1.084       .  S
C1023      C1024   1.414       .  A
C1023      S1027   1.805       .  S
C1024      C1025   1.401       .  A
C1025      C1026   1.395       .  A
C1025      H1032   1.085       .  S
C1026      S1028   1.803       .  S
S1027      H1030   1.405       .  S
S1028      H1029   1.406       .  S
C1033      C1038   1.408       .  A
C1034      C1035   1.394       .  A
C1034      H1043   1.084       .  S
C1035      S1039   1.805       .  S
C1036      C1037   1.406       .  A
C1037      C1038   1.391       .  A
C1037      H1044   1.083       .  S
C1038      S1040   1.805       .  S
S1039      H1042   1.406       .  S
S1040      H1041   1.407       .  S
C1045      C1046   1.404       .  A
C1045      C1050   1.409       .  A
C1046      C1047   1.401       .  A
C1046      H1055   1.084       .  S
C1047      C1048   1.412       .  A
C1047      S1051   1.803       .  S
C1048      C1049   1.401       .  A
C1049      C1050   1.388       .  A
C1049      H1056   1.084       .  S
C1050      S1052   1.804       .  S
S1051      H1054   1.405       .  S
S1052      H1053   1.406       .  S
C1057      C1058   1.400       .  A
C1057      C1062   1.410       .  A
C1058      C1059   1.396       .  A
C1058      H1067   1.084       .  S
C1059      C1060   1.416       .  A
C1059      S1063   1.801       .  S
C1060      C1061   1.404       .  A
C1061      C1062   1.391       .  A
C1061      H1068   1.084       .  S
C1062      S1064   1.805       .  S
S1063      H1066   1.406       .  S
S1064      H1065   1.406       .  S
C1069      C1074   1.414       .  A
C1070      C1071   1.395       .  A
C1070      H1079   1.084       .  S
C1071      S1075   1.805       .  S
C1072      C1073   1.403       .  A
C1073      C1074   1.398       .  A
C1073      H1080   1.084       .  S
C1074      S1076   1.803       .  S
S1075      H1078   1.406       .  S
S1076      H1077   1.407       .  S
C1081      C1082   1.402       .  A
C1081      C1086   1.413       .  A
C1082      C1083   1.391       .  A
C1082      H1091   1.085       .  S
C1083      C1084   1.412       .  A
C1083      S1087   1.806       .  S
C1084      C1085   1.403       .  A
C1085      C1086   1.400       .  A
C1085      H1092   1.084       .  S
C1086      S1088   1.805       .  S
S1087      H1090   1.406       .  S
S1088      H1089   1.407       .  S
C1093      C1094   1.402       .  A
C1093      C1098   1.410       .  A
C1094      C1095   1.392       .  A
C1094      H1103   1.084       .  S
C1095      C1096   1.412       .  A
C1095      S1099   1.804       .  S
C1096      C1097   1.405       .  A
C1097      C1098   1.400       .  A
C1097      H1104   1.084       .  S
C1098      S1100   1.802       .  S
S1099      H1102   1.406       .  S
S1100      H1101   1.407       .  S
