geometry optimzed in LAMMPS
_audit_creation_date              2020-11-30 
_audit_creation_method            'lammps2cif' 
_symmetry_space_group_name_H-M    'P1' 
_symmetry_Int_Tables_number       1 
_symmetry_cell_setting            triclinic 
loop_ 
_symmetry_equiv_pos_as_xyz 
  x,y,z 
_cell_length_a                    28.150824051813238 
_cell_length_b                    28.145564795003487 
_cell_length_c                    28.16001425718423 
_cell_angle_alpha                 89.98827644432455 
_cell_angle_beta                  90.00974676690376 
_cell_angle_gamma                 89.9981088115105 
loop_ 
_atom_site_label 
_atom_site_type_symbol 
_atom_site_fract_x 
_atom_site_fract_y 
_atom_site_fract_z 
_atom_site_charge 
C1          C  0.84107836  0.55021295  0.84053834     0.03500
C2          C  0.87097610  0.52502062  0.80895122     0.03500
C3          C  0.87063019  0.47508382  0.80898218     0.03500
C4          C  0.84037931  0.45039360  0.84062634     0.03500
C5          C  0.80906679  0.47550616  0.87084848     0.03500
C6          C  0.80937272  0.52560767  0.87078524     0.03500
C7          C  0.83606661  0.18388320  0.77558146     0.04340
C8          C  0.85769166  0.22376355  0.79566198    -0.11810
C9          C  0.83614677  0.24699827  0.83403457     0.01840
C10         C  0.79639558  0.22677430  0.85601816    -0.10330
C11         C  0.77515773  0.18638276  0.83638514     0.04330
C12         C  0.79695551  0.16319953  0.79820838    -0.09750
H13         H  0.88489628  0.24229743  0.77558929     0.09930
H14         H  0.77668323  0.24753726  0.88182544     0.07460
H15         H  0.77759773  0.13529103  0.77995216     0.07310
C16         C  0.57204176  0.18030709  0.84289041     0.03500
C17         C  0.54709430  0.15052287  0.81100379     0.03500
C18         C  0.49707747  0.15058688  0.81109912     0.03500
C19         C  0.47241769  0.18039949  0.84309492     0.03500
C20         C  0.49744860  0.21219509  0.87295566     0.03500
C21         C  0.54740276  0.21217538  0.87276123     0.03500
C22         C  0.20310264  0.55007409  0.84153745     0.03500
C23         C  0.23462187  0.52538059  0.87177169     0.03500
C24         C  0.23454782  0.47535045  0.87196160     0.03500
C25         C  0.20251033  0.45053878  0.84222943     0.03500
C26         C  0.17281261  0.47528172  0.81023111     0.03500
C27         C  0.17321390  0.52525241  0.80979286     0.03500
C28         C  0.20795597  0.24745912  0.83575111     0.04340
C29         C  0.24601904  0.22594597  0.85938854    -0.11810
C30         C  0.26916346  0.18698367  0.83899668     0.01840
C31         C  0.24963264  0.16512173  0.79898511    -0.10330
C32         C  0.21124605  0.18626802  0.77540504     0.04330
C33         C  0.18886625  0.22600358  0.79522937    -0.09750
H34         H  0.26385097  0.24547213  0.88744718     0.09930
H35         H  0.27003974  0.13797222  0.78074007     0.07460
H36         H  0.16312675  0.24550094  0.77415907     0.07310
C37         C  0.47248714  0.81970519  0.84158333     0.03500
C38         C  0.49679985  0.78758658  0.87140268     0.03500
C39         C  0.54672693  0.78691122  0.87144009     0.03500
C40         C  0.57211610  0.81831521  0.84145518     0.03500
C41         C  0.54765437  0.84870731  0.80973706     0.03500
C42         C  0.49758727  0.84928006  0.80974097     0.03500
C43         C  0.20889233  0.75295158  0.83473780     0.04340
C44         C  0.18829748  0.77547041  0.79548116    -0.11810
C45         C  0.20988883  0.81563426  0.77582932     0.01840
C46         C  0.24834336  0.83678059  0.79916340    -0.10330
C47         C  0.26957105  0.81385654  0.83775301     0.04330
C48         C  0.24810046  0.77354611  0.85728895    -0.09750
H49         H  0.16191002  0.75641522  0.77481278     0.09930
H50         H  0.26786312  0.86474961  0.78116547     0.07460
H51         H  0.26745301  0.75299668  0.88355865     0.07310
C52         C  0.57232899  0.81832780  0.20417062     0.03500
C53         C  0.54758488  0.84860754  0.23571257     0.03500
C54         C  0.49751782  0.84855985  0.23596109     0.03500
C55         C  0.47253821  0.81838233  0.20451713     0.03500
C56         C  0.49733300  0.78681414  0.17427527     0.03500
C57         C  0.54727892  0.78671033  0.17417461     0.03500
C58         C  0.20336808  0.82003153  0.57256349     0.03500
C59         C  0.23495320  0.85004241  0.54741944     0.03500
C60         C  0.23441418  0.85021936  0.49748233     0.03500
C61         C  0.20247409  0.82035060  0.47294474     0.03500
C62         C  0.17289288  0.78831608  0.49791461     0.03500
C63         C  0.17317475  0.78832024  0.54792766     0.03500
C64         C  0.20580261  0.75353907  0.20940743     0.04340
C65         C  0.24582497  0.77324897  0.18770061    -0.11810
C66         C  0.26922627  0.81169162  0.20896721     0.01840
C67         C  0.24916348  0.83396979  0.24862016    -0.10330
C68         C  0.20868097  0.81465430  0.26995873     0.04330
C69         C  0.18524389  0.77652381  0.24835459    -0.09750
H70         H  0.26422834  0.75293132  0.16060036     0.09930
H71         H  0.27007723  0.85976999  0.26819752     0.07460
H72         H  0.15720764  0.75854504  0.26778461     0.07310
C73         C  0.20175169  0.55023825  0.20255673     0.03500
C74         C  0.17222558  0.52499430  0.23450741     0.03500
C75         C  0.17259854  0.47499794  0.23426244     0.03500
C76         C  0.20241553  0.45059817  0.20202646     0.03500
C77         C  0.23391766  0.47578577  0.17218443     0.03500
C78         C  0.23363347  0.52579217  0.17244978     0.03500
C79         C  0.57241955  0.18138855  0.20277480     0.03500
C80         C  0.54693880  0.21320696  0.17327775     0.03500
C81         C  0.49694099  0.21320234  0.17420344     0.03500
C82         C  0.47269673  0.18145803  0.20464335     0.03500
C83         C  0.49822250  0.15137670  0.23583887     0.03500
C84         C  0.54821173  0.15142078  0.23497136     0.03500
C85         C  0.20924929  0.24745692  0.20810741     0.04340
C86         C  0.24974911  0.22585628  0.18913280    -0.11810
C87         C  0.26944963  0.18610202  0.21161517     0.01840
C88         C  0.24573104  0.16505404  0.24996251    -0.10330
C89         C  0.20570827  0.18703240  0.26936525     0.04330
C90         C  0.18547135  0.22604212  0.24613536    -0.09750
H91         H  0.27090904  0.24525411  0.16340339     0.09930
H92         H  0.26388065  0.13788455  0.27044317     0.07460
H93         H  0.15740885  0.24565809  0.26386363     0.07310
C94         C  0.20413167  0.18116353  0.57223479     0.03500
C95         C  0.17356454  0.21271409  0.54790086     0.03500
C96         C  0.17264523  0.21258743  0.49793189     0.03500
C97         C  0.20218349  0.18074614  0.47257437     0.03500
C98         C  0.23455410  0.15100591  0.49683156     0.03500
C99         C  0.23547138  0.15115213  0.54681290     0.03500
C100        C  0.84219528  0.55048210  0.20314626     0.03500
C101        C  0.87204518  0.52530967  0.23486073     0.03500
C102        C  0.87199552  0.47535675  0.23448154     0.03500
C103        C  0.84206268  0.45084371  0.20259499     0.03500
C104        C  0.81008202  0.47583461  0.17299391     0.03500
C105        C  0.81031246  0.52588377  0.17310617     0.03500
C106        C  0.84215256  0.18059758  0.57235672     0.03500
C107        C  0.80987890  0.15106235  0.54761801     0.03500
C108        C  0.80941276  0.15139343  0.49768828     0.03500
C109        C  0.84084035  0.18164096  0.47268234     0.03500
C110        C  0.87126270  0.21302169  0.49747575     0.03500
C111        C  0.87193053  0.21247964  0.54750619     0.03500
C112        C  0.83360517  0.18665567  0.26944082     0.04340
C113        C  0.79516300  0.16563510  0.24582367    -0.11810
C114        C  0.77576209  0.18754436  0.20574708     0.01840
C115        C  0.79909487  0.22639352  0.18533725    -0.10330
C116        C  0.83713558  0.24781447  0.20905587     0.04330
C117        C  0.85612031  0.22630837  0.24960445    -0.09750
H118        H  0.77464901  0.13855570  0.26405903     0.09930
H119        H  0.78137415  0.24597537  0.15723746     0.07460
H120        H  0.88188073  0.24575197  0.27069084     0.07310
C121        C  0.84039328  0.81920413  0.57287847     0.03500
C122        C  0.80900765  0.84927382  0.54756272     0.03500
C123        C  0.80952522  0.84921872  0.49765327     0.03500
C124        C  0.84151405  0.81933249  0.47326010     0.03500
C125        C  0.87110453  0.78740321  0.49830937     0.03500
C126        C  0.87067408  0.78743702  0.54836441     0.03500
C127        C  0.83917834  0.75386237  0.20998183     0.04340
C128        C  0.79936156  0.77350995  0.18781407    -0.11810
C129        C  0.77566668  0.81190468  0.20882265     0.01840
C130        C  0.79533802  0.83426647  0.24862701    -0.10330
C131        C  0.83571927  0.81511163  0.27032681     0.04330
C132        C  0.85940919  0.77699475  0.24902700    -0.09750
H133        H  0.78123966  0.75313002  0.16056563     0.09930
H134        H  0.77418354  0.86000746  0.26801729     0.07460
H135        H  0.88729059  0.75909431  0.26876369     0.07310
C136        C  0.83876113  0.75361180  0.83437738     0.04340
C137        C  0.79960170  0.77257085  0.85830348    -0.11810
C138        C  0.77547429  0.81171741  0.83931482     0.01840
C139        C  0.79447557  0.83571510  0.80021917    -0.10330
C140        C  0.83369047  0.81680049  0.77617875     0.04330
C141        C  0.85772657  0.77773660  0.79523595    -0.09750
H142        H  0.78215729  0.75133168  0.88533716     0.09930
H143        H  0.77324283  0.86275010  0.78274781     0.07460
H144        H  0.88482432  0.76031567  0.77406406     0.07310
O145        O  0.97213085  0.71554553  0.66601053    -0.71730
O146        O  0.07274646  0.64337775  0.73777488    -0.72710
O147        O  0.07235137  0.71594907  0.66572920    -0.61330
O148        O  0.97274276  0.64290316  0.73802349    -0.69740
O149        O  0.97279877  0.58724499  0.68208024    -0.69290
O150        O  0.07248694  0.66037887  0.60970675    -0.60550
O151        O  0.07287704  0.58767413  0.68187634    -0.73060
O152        O  0.97217191  0.66001771  0.60994948    -0.71840
Cu153      Cu  0.02248996  0.68139284  0.70381322     1.04560
Cu154      Cu  0.02258641  0.62190209  0.64392801     1.04330
C155        C  0.95735118  0.69973827  0.62614436     0.94470
C156        C  0.08743412  0.60353369  0.72180594     0.93610
C157        C  0.08706380  0.70021978  0.62580900     0.85750
C158        C  0.95831008  0.60294616  0.72208582     0.92020
O159        O  0.60933303  0.05029379  0.68287888    -0.71730
O160        O  0.68172659  0.95073049  0.60963992    -0.72710
O161        O  0.60951821  0.95004172  0.68230580    -0.61330
O162        O  0.68178003  0.05077792  0.61017757    -0.69740
O163        O  0.73762111  0.05046439  0.66593549    -0.69290
O164        O  0.66556161  0.94981960  0.73786020    -0.60550
O165        O  0.73764994  0.95049164  0.66533225    -0.73060
O166        O  0.66530620  0.04997936  0.73850248    -0.71840
Cu167      Cu  0.64361903  0.00049233  0.64432071     1.04560
Cu168      Cu  0.70346329  0.00019977  0.70385412     1.04330
C169        C  0.62529239  0.06460082  0.72286049     0.94470
C170        C  0.72172127  0.93617540  0.62534606     0.93610
C171        C  0.62565974  0.93514437  0.72201564     0.85750
C172        C  0.72181834  0.06512601  0.62601691     0.92020
O173        O  0.68231664  0.58748223  0.07253617    -0.71730
O174        O  0.60904053  0.65936019  0.97261331    -0.72710
O175        O  0.68200522  0.58734078  0.97226260    -0.61330
O176        O  0.60942310  0.65953359  0.07260380    -0.69740
O177        O  0.66498410  0.71559600  0.07229553    -0.69290
O178        O  0.73740475  0.64355015  0.97203579    -0.60550
O179        O  0.66457685  0.71545635  0.97237558    -0.73060
O180        O  0.73775184  0.64366643  0.07222056    -0.71840
Cu181      Cu  0.64377890  0.62144594  0.02251062     1.04560
Cu182      Cu  0.70312670  0.68149954  0.02221868     1.04330
C183        C  0.72212090  0.60372708  0.08704716     0.94470
C184        C  0.62462575  0.69940962  0.95806160     0.93610
C185        C  0.72170810  0.60355883  0.95741977     0.85750
C186        C  0.62515104  0.69959773  0.08698356     0.92020
O187        O  0.37922849  0.05070473  0.73770295    -0.71730
O188        O  0.30733720  0.95053022  0.66518429    -0.72710
O189        O  0.37948544  0.95055356  0.73785181    -0.61330
O190        O  0.30727010  0.05048281  0.66489097    -0.69740
O191        O  0.36334083  0.05050429  0.60937389    -0.69290
O192        O  0.43552145  0.95049308  0.68231260    -0.60550
O193        O  0.36325429  0.95047962  0.60951132    -0.73060
O194        O  0.43542632  0.05073407  0.68232059    -0.71840
Cu195      Cu  0.34139680  0.00056789  0.70335056     1.04560
Cu196      Cu  0.40135933  0.00055060  0.64395715     1.04330
C197        C  0.41922650  0.06535174  0.72210103     0.94470
C198        C  0.32321704  0.93604431  0.62525401     0.93610
C199        C  0.41948125  0.93592914  0.72216670     0.85750
C200        C  0.32326088  0.06493097  0.62496487     0.92020
O201        O  0.97253273  0.34036169  0.60978803    -0.71730
O202        O  0.07261300  0.41288917  0.68228617    -0.72710
O203        O  0.07278367  0.34040625  0.60995075    -0.61330
O204        O  0.97248060  0.41287859  0.68223664    -0.69740
O205        O  0.97247798  0.35700341  0.73797959    -0.69290
O206        O  0.07269984  0.28469110  0.66585418    -0.60550
O207        O  0.07253341  0.35704081  0.73806295    -0.73060
O208        O  0.97254236  0.28461073  0.66565102    -0.71840
Cu209      Cu  0.02259310  0.37857799  0.64410583     1.04560
Cu210      Cu  0.02255241  0.31889126  0.70381779     1.04330
C211        C  0.95793236  0.30045551  0.62572492     0.94470
C212        C  0.08715871  0.39695804  0.72219420     0.93610
C213        C  0.08745870  0.30057272  0.62601171     0.85750
C214        C  0.95790885  0.39695570  0.72214054     0.92020
O215        O  0.30650218  0.64405046  0.07273553    -0.71730
O216        O  0.37848515  0.71607942  0.97233158    -0.72710
O217        O  0.30618464  0.64377451  0.97266380    -0.61330
O218        O  0.37899989  0.71626246  0.07236917    -0.69740
O219        O  0.43473931  0.66037352  0.07232949    -0.69290
O220        O  0.36193252  0.58789336  0.97255604    -0.60550
O221        O  0.43434988  0.66030882  0.97222266    -0.73060
O222        O  0.36211639  0.58803503  0.07271372    -0.71840
Cu223      Cu  0.34060412  0.68198260  0.02253778     1.04560
Cu224      Cu  0.40023405  0.62219783  0.02246226     1.04330
C225        C  0.32228497  0.60410457  0.08736141     0.94470
C226        C  0.41832743  0.70017711  0.95760070     0.93610
C227        C  0.32202790  0.60385206  0.95801402     0.85750
C228        C  0.41895137  0.70034623  0.08686516     0.92020
O229        O  0.68165643  0.41363693  0.97227826    -0.71730
O230        O  0.60914282  0.34106511  0.07231194    -0.72710
O231        O  0.68177659  0.41368502  0.07249574    -0.61330
O232        O  0.60937321  0.34101852  0.97225520    -0.69740
O233        O  0.66538834  0.28540227  0.97238538    -0.69290
O234        O  0.73749093  0.35778847  0.07253273    -0.60550
O235        O  0.66499094  0.28529604  0.07235548    -0.73060
O236        O  0.73753230  0.35789112  0.97240501    -0.71840
Cu237      Cu  0.64354818  0.37931169  0.02235829     1.04560
Cu238      Cu  0.70330225  0.31967180  0.02244762     1.04330
C239        C  0.72154472  0.39773042  0.95765026     0.94470
C240        C  0.62492759  0.30103854  0.08673923     0.93610
C241        C  0.72171302  0.39776781  0.08707445     0.85750
C242        C  0.62544199  0.30113476  0.95773557     0.91740
O243        O  0.73780060  0.94977738  0.37934121    -0.71730
O244        O  0.66615202  0.05031082  0.30709110    -0.72710
O245        O  0.73822767  0.04983338  0.37967459    -0.61330
O246        O  0.66560229  0.95009024  0.30699504    -0.69740
O247        O  0.60968553  0.95019770  0.36266455    -0.69290
O248        O  0.68228702  0.05001049  0.43532330    -0.60550
O249        O  0.61008841  0.05050828  0.36261113    -0.73060
O250        O  0.68199966  0.94987734  0.43513744    -0.71840
Cu251      Cu  0.70387640  0.00000709  0.34132942     1.04560
Cu252      Cu  0.64404492  0.00016273  0.40086754     1.04330
C253        C  0.72185235  0.93516039  0.41919647     0.94470
C254        C  0.62628759  0.06515748  0.32283648     0.93610
C255        C  0.72231821  0.06441061  0.41957889     0.85750
C256        C  0.62568689  0.93546147  0.32286976     0.92020
O257        O  0.97227303  0.65992328  0.43581207    -0.71730
O258        O  0.07237531  0.58744031  0.36310169    -0.72710
O259        O  0.07246884  0.66010351  0.43568063    -0.61330
O260        O  0.97236578  0.58737542  0.36321545    -0.69740
O261        O  0.97225015  0.64331822  0.30754184    -0.69290
O262        O  0.07228710  0.71584082  0.37981461    -0.60550
O263        O  0.07218953  0.64330370  0.30735934    -0.73060
O264        O  0.97216837  0.71573091  0.38002056    -0.71840
Cu265      Cu  0.02238368  0.62177862  0.40141152     1.04560
Cu266      Cu  0.02222637  0.68150008  0.34176191     1.04330
C267        C  0.95763873  0.69986296  0.41997148     0.94470
C268        C  0.08666879  0.60324428  0.32304951     0.93610
C269        C  0.08690615  0.70008954  0.41977226     0.85750
C270        C  0.95788340  0.60324586  0.32325200     0.92020
O271        O  0.97166353  0.28499107  0.37958273    -0.71730
O272        O  0.07218074  0.35645909  0.30692896    -0.72710
O273        O  0.07171044  0.28443881  0.37986360    -0.61330
O274        O  0.97210630  0.35687252  0.30688447    -0.69740
O275        O  0.97224752  0.41305665  0.36230014    -0.69290
O276        O  0.07193232  0.34052830  0.43536123    -0.60550
O277        O  0.07240706  0.41267182  0.36229641    -0.73060
O278        O  0.97179845  0.34103929  0.43513158    -0.71840
Cu279      Cu  0.02193301  0.31874316  0.34138889     1.04560
Cu280      Cu  0.02212879  0.37878971  0.40070686     1.04330
C281        C  0.95702973  0.30113348  0.41936041     0.94470
C282        C  0.08686643  0.39649176  0.32245091     0.93610
C283        C  0.08621286  0.30036934  0.41979057     0.85750
C284        C  0.95760778  0.39692221  0.32251588     0.92020
O285        O  0.43586438  0.04995146  0.36323911    -0.71730
O286        O  0.36237606  0.95041355  0.43543208    -0.72710
O287        O  0.43539504  0.94975768  0.36360814    -0.61330
O288        O  0.36266544  0.05063905  0.43502506    -0.69740
O289        O  0.30742641  0.05059503  0.37867126    -0.69290
O290        O  0.37993951  0.94981372  0.30746251    -0.60550
O291        O  0.30704671  0.95046047  0.37915491    -0.73060
O292        O  0.38048877  0.04991851  0.30701228    -0.71840
Cu293      Cu  0.40100719  0.00020141  0.40129697     1.04560
Cu294      Cu  0.34180317  0.00020797  0.34112249     1.04330
C295        C  0.42036496  0.06438882  0.32312504     0.94470
C296        C  0.32256951  0.93589212  0.41921772     0.93610
C297        C  0.41965754  0.93504044  0.32367917     0.85750
C298        C  0.32294977  0.06531797  0.41866874     0.92020
O299        O  0.37883226  0.28520203  0.07341094    -0.71730
O300        O  0.30684685  0.35713181  0.97270554    -0.72710
O301        O  0.37925043  0.28461031  0.97337489    -0.61330
O302        O  0.30668051  0.35765814  0.07270518    -0.69740
O303        O  0.36252537  0.41344719  0.07260791    -0.69290
O304        O  0.43515732  0.34032517  0.97318679    -0.60550
O305        O  0.36260798  0.41297993  0.97251191    -0.73060
O306        O  0.43481105  0.34084347  0.07332000    -0.71840
Cu307      Cu  0.34096910  0.31921180  0.02303205     1.04560
Cu308      Cu  0.40073622  0.37884315  0.02287793     1.04330
C309        C  0.41870176  0.30107722  0.08813280     0.94470
C310        C  0.32264491  0.39706205  0.95802457     0.93610
C311        C  0.41929441  0.30028627  0.95890048     0.85750
C312        C  0.32256478  0.39763617  0.08713349     0.92020
C313        C  0.81684294  0.78297270  0.39756137    -0.12130
C314        C  0.84137993  0.81903774  0.42106343     0.10020
C315        C  0.86408100  0.85513203  0.39511971    -0.12130
C316        C  0.86266407  0.85461455  0.34545317    -0.12130
C317        C  0.83845139  0.81803271  0.32210712     0.10020
C318        C  0.81520510  0.78261122  0.34839241    -0.12130
H319        H  0.79871676  0.75540795  0.41738634     0.14000
H320        H  0.88269069  0.88343471  0.41334472     0.14000
H321        H  0.88027828  0.88231942  0.32542240     0.14000
H322        H  0.79545718  0.75479886  0.33066815     0.14000
C323        C  0.87899625  0.83548700  0.65143789    -0.12130
C324        C  0.83958621  0.81958079  0.62527904     0.10020
C325        C  0.79846796  0.80481203  0.64886466    -0.12130
C326        C  0.79628003  0.80664318  0.69800727    -0.12130
C327        C  0.83551016  0.82246768  0.72444993     0.10020
C328        C  0.87717647  0.83635734  0.70106109    -0.12130
H329        H  0.91103533  0.84681573  0.63342026     0.14000
H330        H  0.76807180  0.79191692  0.62908898     0.14000
H331        H  0.76441969  0.79411644  0.71561557     0.14000
H332        H  0.90809583  0.84732242  0.72113695     0.14000
C333        C  0.77643328  0.87875989  0.47101021    -0.12060
C334        C  0.75028080  0.90331270  0.44738380    -0.13620
C335        C  0.90125998  0.75441343  0.47211624    -0.12060
C336        C  0.92594152  0.72839569  0.44838455    -0.13620
C337        C  0.90020054  0.75419703  0.57486369    -0.12060
C338        C  0.92510019  0.72811409  0.59826453    -0.13620
C339        C  0.77624313  0.88001660  0.57322714    -0.12060
C340        C  0.75022930  0.90477321  0.59677886    -0.13620
C341        C  0.87935221  0.16674994  0.39383499    -0.12130
C342        C  0.83990362  0.18205342  0.42029420     0.10020
C343        C  0.79884001  0.19747015  0.39700990    -0.12130
C344        C  0.79672856  0.19680485  0.34783177    -0.12130
C345        C  0.83594610  0.18144607  0.32114450     0.10020
C346        C  0.87757809  0.16698383  0.34421192    -0.12130
H347        H  0.91136525  0.15498734  0.41163470     0.14000
H348        H  0.76844255  0.20994905  0.41703668     0.14000
H349        H  0.76483738  0.20952798  0.33040312     0.14000
H350        H  0.90840461  0.15618573  0.32391561     0.14000
C351        C  0.77676440  0.12075865  0.47168438    -0.12060
C352        C  0.75085537  0.09594895  0.44803313    -0.13620
C353        C  0.92509933  0.27287010  0.44765698    -0.12060
C354        C  0.90053588  0.24664416  0.47121535    -0.13620
C355        C  0.75063496  0.09650710  0.59759035    -0.12060
C356        C  0.77694889  0.12089679  0.57390262    -0.13620
C357        C  0.90160835  0.24574799  0.57381675    -0.12060
C358        C  0.92618512  0.27191330  0.59745347    -0.13620
C359        C  0.87852562  0.37247546  0.18173515    -0.12130
C360        C  0.84166195  0.39861531  0.20292786     0.10020
C361        C  0.80465090  0.37527319  0.22616059    -0.12130
C362        C  0.80406461  0.32610189  0.22790024    -0.12130
C363        C  0.84018489  0.29960763  0.20602377     0.10020
C364        C  0.87779201  0.32278767  0.18326860    -0.12130
H365        H  0.90759062  0.39056722  0.16420418     0.14000
H366        H  0.77651781  0.39522956  0.24323057     0.14000
H367        H  0.77558902  0.30856662  0.24680533     0.14000
H368        H  0.90612281  0.30261421  0.16686453     0.14000
C369        C  0.82657230  0.62635384  0.24445771    -0.12130
C370        C  0.84237802  0.60286137  0.20375746     0.10020
C371        C  0.85857053  0.62909492  0.16448769    -0.12130
C372        C  0.85894990  0.67878614  0.16619704    -0.12130
C373        C  0.84418508  0.70206414  0.20759486     0.10020
C374        C  0.82783321  0.67548204  0.24649636    -0.12130
H375        H  0.81334308  0.60651875  0.27466822     0.14000
H376        H  0.87055680  0.61108590  0.13269616     0.14000
H377        H  0.87039949  0.69894470  0.13551741     0.14000
H378        H  0.81472382  0.69289705  0.27810841     0.14000
C379        C  0.77679064  0.44965962  0.14315189    -0.12060
C380        C  0.75042837  0.42610517  0.11866685    -0.13620
C381        C  0.90147387  0.44877998  0.26768005    -0.12060
C382        C  0.92594441  0.42510696  0.29387092    -0.13620
C383        C  0.75076386  0.57580702  0.11899087    -0.12060
C384        C  0.77697739  0.55234573  0.14367336    -0.13620
C385        C  0.90229573  0.55114456  0.26801059    -0.12060
C386        C  0.92666183  0.57471488  0.29442195    -0.13620
C387        C  0.11950456  0.27215241  0.59800441    -0.12060
C388        C  0.14422198  0.24601129  0.57451716    -0.13620
C389        C  0.29469479  0.09623921  0.59626270    -0.12060
C390        C  0.26857445  0.12075439  0.57251960    -0.13620
C391        C  0.26783791  0.12171599  0.47008236    -0.12060
C392        C  0.29419032  0.09721447  0.44656766    -0.13620
C393        C  0.14199512  0.24548104  0.47217077    -0.12060
C394        C  0.11744808  0.27165194  0.44847921    -0.13620
C395        C  0.21746144  0.22338716  0.34765312    -0.12130
C396        C  0.20051145  0.18472586  0.32111855     0.10020
C397        C  0.18476526  0.14368948  0.34444055    -0.12130
C398        C  0.18486127  0.14215427  0.39413128    -0.12130
C399        C  0.20160775  0.18127370  0.42026253     0.10020
C400        C  0.21825272  0.22159933  0.39674099    -0.12130
H401        H  0.23147298  0.25458958  0.33027057     0.14000
H402        H  0.17284029  0.11315202  0.32433564     0.14000
H403        H  0.17231339  0.11060130  0.41221268     0.14000
H404        H  0.23197731  0.25163051  0.41651938     0.14000
C405        C  0.39698446  0.19708139  0.24660112    -0.12130
C406        C  0.42031638  0.18131831  0.20573014     0.10020
C407        C  0.39391855  0.16558226  0.16641070    -0.12130
C408        C  0.34428293  0.16584326  0.16807026    -0.12130
C409        C  0.32115391  0.18081674  0.20945316     0.10020
C410        C  0.34778168  0.19650507  0.24858638    -0.12130
H411        H  0.41698097  0.20989436  0.27687874     0.14000
H412        H  0.41177899  0.15357509  0.13454194     0.14000
H413        H  0.32402886  0.15474109  0.13732438     0.14000
H414        H  0.33028603  0.20956690  0.28028415     0.14000
C415        C  0.65087007  0.14247303  0.18605890    -0.12130
C416        C  0.62478179  0.18192519  0.20209169     0.10020
C417        C  0.64841059  0.22259504  0.21777570    -0.12130
C418        C  0.69752203  0.22440137  0.21664899    -0.12130
C419        C  0.72398288  0.18531873  0.20053666     0.10020
C420        C  0.70056799  0.14396603  0.18579704    -0.12130
H421        H  0.63274677  0.11067271  0.17422089     0.14000
H422        H  0.62869814  0.25291724  0.23094870     0.14000
H423        H  0.71499803  0.25596513  0.22976162     0.14000
H424        H  0.72061781  0.11314303  0.17452192     0.14000
C425        C  0.44670106  0.27268654  0.12025137    -0.12060
C426        C  0.47021176  0.24652067  0.14495104    -0.13620
C427        C  0.47262948  0.12065175  0.26872764    -0.12060
C428        C  0.44903434  0.09585527  0.29470796    -0.13620
C429        C  0.57498058  0.12197682  0.26808818    -0.12060
C430        C  0.59841070  0.09724679  0.29429455    -0.13620
C431        C  0.59629916  0.27226291  0.11798520    -0.12060
C432        C  0.57260556  0.24610873  0.14255195    -0.13620
C433        C  0.18460694  0.37194227  0.16430570    -0.12130
C434        C  0.20341443  0.39832539  0.20228778     0.10020
C435        C  0.22431168  0.37515771  0.24077885    -0.12130
C436        C  0.22578463  0.32600985  0.24187333    -0.12130
C437        C  0.20609186  0.29926132  0.20471439     0.10020
C438        C  0.18603786  0.32224342  0.16546269    -0.12130
H439        H  0.16889887  0.38984759  0.13410318     0.14000
H440        H  0.23962640  0.39524204  0.26981308     0.14000
H441        H  0.24292432  0.30872735  0.27155707     0.14000
H442        H  0.17154213  0.30190676  0.13622703     0.14000
C443        C  0.11844173  0.42465281  0.29355855    -0.12060
C444        C  0.14285953  0.44833813  0.26725939    -0.13620
C445        C  0.26760890  0.44979218  0.14279544    -0.12060
C446        C  0.29397706  0.42612197  0.11853861    -0.13620
C447        C  0.29365147  0.57593920  0.11907892    -0.12060
C448        C  0.26719688  0.55236975  0.14338492    -0.13620
C449        C  0.14204270  0.55086821  0.26773765    -0.12060
C450        C  0.11778120  0.57461195  0.29412671    -0.13620
C451        C  0.18492423  0.67859073  0.16584593    -0.12130
C452        C  0.20081714  0.70175707  0.20688419     0.10020
C453        C  0.21783653  0.67506751  0.24541473    -0.12130
C454        C  0.21846961  0.62594681  0.24350947    -0.12130
C455        C  0.20158612  0.60257811  0.20320327     0.10020
C456        C  0.18486623  0.62888778  0.16419389    -0.12130
H457        H  0.17292477  0.69882468  0.13542332     0.14000
H458        H  0.23192026  0.69235865  0.27663025     0.14000
H459        H  0.23218291  0.60602781  0.27345365     0.14000
H460        H  0.17214297  0.61092776  0.13265652     0.14000
C461        C  0.22417058  0.78172399  0.39747265    -0.12130
C462        C  0.20280173  0.81989989  0.42071712     0.10020
C463        C  0.18330102  0.85763427  0.39446113    -0.12130
C464        C  0.18465775  0.85661561  0.34479176    -0.12130
C465        C  0.20536061  0.81776066  0.32172507     0.10020
C466        C  0.22559272  0.78077518  0.34834474    -0.12130
H467        H  0.24001548  0.75290485  0.41747901     0.14000
H468        H  0.16724175  0.88760190  0.41244633     0.14000
H469        H  0.16970320  0.88569744  0.32454362     0.14000
H470        H  0.24315596  0.75138752  0.33097035     0.14000
C471        C  0.14289226  0.75516823  0.47174291    -0.12060
C472        C  0.11841557  0.72886573  0.44812262    -0.13620
C473        C  0.26760174  0.87976033  0.47095251    -0.12060
C474        C  0.29380753  0.90425670  0.44732108    -0.13620
C475        C  0.14370563  0.75494718  0.57431130    -0.12060
C476        C  0.11898787  0.72877388  0.59777736    -0.13620
C477        C  0.26809493  0.88028507  0.57324946    -0.12060
C478        C  0.29448779  0.90472222  0.59675505    -0.13620
C479        C  0.39672599  0.77683965  0.22060502    -0.12130
C480        C  0.42014190  0.81772500  0.20493132     0.10020
C481        C  0.39381319  0.85715970  0.18930680    -0.12130
C482        C  0.34416158  0.85551311  0.18942269    -0.12130
C483        C  0.32097114  0.81402883  0.20412171     0.10020
C484        C  0.34753814  0.77486271  0.21986285    -0.12130
H485        H  0.41666399  0.74645515  0.23329723     0.14000
H486        H  0.41172980  0.88903130  0.17733763     0.14000
H487        H  0.32394707  0.88629556  0.17830364     0.14000
H488        H  0.33000131  0.74308896  0.23273420     0.14000
C489        C  0.64822004  0.77665823  0.21971100    -0.12130
C490        C  0.62474239  0.81760893  0.20428114     0.10020
C491        C  0.65103432  0.85714860  0.18886015    -0.12130
C492        C  0.70068971  0.85558358  0.18905093    -0.12130
C493        C  0.72394121  0.81406503  0.20357591     0.10020
C494        C  0.69741146  0.77474957  0.21899589    -0.12130
H495        H  0.62833110  0.74619951  0.23229067     0.14000
H496        H  0.63308605  0.88908198  0.17709436     0.14000
H497        H  0.72086212  0.88648583  0.17820119     0.14000
H498        H  0.71497672  0.74294526  0.23176123     0.14000
C499        C  0.47109673  0.75452236  0.14344941    -0.12060
C500        C  0.44739192  0.72879055  0.11850420    -0.13620
C501        C  0.44790278  0.90296580  0.29549600    -0.12060
C502        C  0.47137986  0.87818986  0.26938673    -0.13620
C503        C  0.59676493  0.72812825  0.11858976    -0.12060
C504        C  0.57323768  0.75412255  0.14342848    -0.13620
C505        C  0.57396499  0.87845227  0.26874035    -0.12060
C506        C  0.59754574  0.90339906  0.29458505    -0.13620
C507        C  0.16611730  0.83540113  0.70084547    -0.12130
C508        C  0.20756575  0.82072030  0.72409402     0.10020
C509        C  0.24676000  0.80503301  0.69754830    -0.12130
C510        C  0.24488370  0.80430109  0.64839937    -0.12130
C511        C  0.20406749  0.81997840  0.62493221     0.10020
C512        C  0.16457278  0.83555550  0.65119283    -0.12130
H513        H  0.13528040  0.84642415  0.72100159     0.14000
H514        H  0.27849048  0.79212654  0.71503042     0.14000
H515        H  0.27527314  0.79153392  0.62853905     0.14000
H516        H  0.13270221  0.84743793  0.63322010     0.14000
C517        C  0.39677112  0.79197838  0.80753946    -0.12130
C518        C  0.42029855  0.81966340  0.84122862     0.10020
C519        C  0.39440240  0.84574227  0.87495974    -0.12130
C520        C  0.34472102  0.84431516  0.87459019    -0.12130
C521        C  0.32134571  0.81664215  0.84058217     0.10020
C522        C  0.34757120  0.79035170  0.80732377    -0.12130
H523        H  0.41659371  0.77146329  0.78171785     0.14000
H524        H  0.41266957  0.86694199  0.90134189     0.14000
H525        H  0.32470423  0.86453187  0.90045308     0.14000
H526        H  0.32972943  0.76841940  0.78123148     0.14000
C527        C  0.64817058  0.77637008  0.82726264    -0.12130
C528        C  0.62453180  0.81749909  0.84194097     0.10020
C529        C  0.65065340  0.85693906  0.85784889    -0.12130
C530        C  0.70029035  0.85514890  0.85878883    -0.12130
C531        C  0.72373181  0.81347931  0.84497574     0.10020
C532        C  0.69732897  0.77420703  0.82917658    -0.12130
H533        H  0.62842748  0.74595217  0.81436279     0.14000
H534        H  0.63259665  0.88898589  0.86911006     0.14000
H535        H  0.72033651  0.88609870  0.86973255     0.14000
H536        H  0.71498186  0.74234276  0.81671162     0.14000
C537        C  0.47005056  0.75469210  0.90105923    -0.12060
C538        C  0.44641072  0.72864087  0.92570012    -0.13620
C539        C  0.44772450  0.90417411  0.75077773    -0.12060
C540        C  0.47141072  0.87943924  0.77677384    -0.13620
C541        C  0.59767269  0.90295942  0.75036343    -0.12060
C542        C  0.57421098  0.87814909  0.77647258    -0.13620
C543        C  0.57233962  0.75398770  0.90207699    -0.12060
C544        C  0.59593706  0.72788867  0.92672180    -0.13620
C545        C  0.16762877  0.16586209  0.70065758    -0.12130
C546        C  0.20897357  0.18108255  0.72371901     0.10020
C547        C  0.24802820  0.19690070  0.69705139    -0.12130
C548        C  0.24603057  0.19729882  0.64786473    -0.12130
C549        C  0.20522791  0.18122484  0.62459702     0.10020
C550        C  0.16595732  0.16542985  0.65104000    -0.12130
H551        H  0.13694366  0.15464929  0.72094668     0.14000
H552        H  0.27969425  0.21013603  0.71450405     0.14000
H553        H  0.27625430  0.21018593  0.62782983     0.14000
H554        H  0.13412613  0.15321432  0.63322442     0.14000
C555        C  0.16528370  0.37205183  0.86158398    -0.12130
C556        C  0.20284438  0.39829271  0.84175467     0.10020
C557        C  0.24074570  0.37501892  0.81994181    -0.12130
C558        C  0.24158860  0.32586427  0.81837340    -0.12130
C559        C  0.20479733  0.29925561  0.83894844     0.10020
C560        C  0.16622471  0.32235398  0.86013527    -0.12130
H561        H  0.13553303  0.39006747  0.87800517     0.14000
H562        H  0.26943423  0.39502424  0.80387563     0.14000
H563        H  0.27077039  0.30845177  0.80049981     0.14000
H564        H  0.13731606  0.30211001  0.87541320     0.14000
C565        C  0.17849395  0.62868066  0.87465174    -0.12130
C566        C  0.20368264  0.60228107  0.84066658     0.10020
C567        C  0.22952639  0.62533632  0.80518262    -0.12130
C568        C  0.23012295  0.67457122  0.80341400    -0.12130
C569        C  0.20493950  0.70123975  0.83715912     0.10020
C570        C  0.17928018  0.67833517  0.87302671    -0.12130
H571        H  0.15849729  0.61082182  0.90222661     0.14000
H572        H  0.24916905  0.60512397  0.77898938     0.14000
H573        H  0.25063932  0.69210860  0.77595702     0.14000
H574        H  0.16020893  0.69872580  0.89946351     0.14000
C575        C  0.14330136  0.44892133  0.77690981    -0.12060
C576        C  0.11883421  0.42524353  0.75072425    -0.13620
C577        C  0.26762458  0.44904408  0.90193914    -0.12060
C578        C  0.29391380  0.42539327  0.92642454    -0.13620
C579        C  0.14359214  0.55154999  0.77650622    -0.12060
C580        C  0.11913457  0.57522400  0.75029746    -0.13620
C581        C  0.26760668  0.55186212  0.90155317    -0.12060
C582        C  0.29354644  0.57560917  0.92623089    -0.13620
C583        C  0.39665901  0.22138724  0.82664936    -0.12130
C584        C  0.42008799  0.18091749  0.84311977     0.10020
C585        C  0.39384862  0.14173326  0.85954132    -0.12130
C586        C  0.34415674  0.14335880  0.85957062    -0.12130
C587        C  0.32092753  0.18455816  0.84411845     0.10020
C588        C  0.34755049  0.22328566  0.82742794    -0.12130
H589        H  0.41652573  0.25149147  0.81320104     0.14000
H590        H  0.41185255  0.11008896  0.87197998     0.14000
H591        H  0.32397443  0.11278544  0.87128646     0.14000
H592        H  0.33021668  0.25465381  0.81369110     0.14000
C593        C  0.44727664  0.09709003  0.75086365    -0.12060
C594        C  0.47070507  0.12145714  0.77740523    -0.13620
C595        C  0.47144223  0.24514629  0.90326517    -0.12060
C596        C  0.44778809  0.27141261  0.92769791    -0.13620
C597        C  0.59694108  0.09601030  0.75169997    -0.12060
C598        C  0.57328147  0.12048596  0.77794013    -0.13620
C599        C  0.59728991  0.27239269  0.92612991    -0.12060
C600        C  0.57378922  0.24584723  0.90187376    -0.13620
C601        C  0.87912701  0.16256922  0.70043530    -0.12130
C602        C  0.83859866  0.17950355  0.72377585     0.10020
C603        C  0.80053646  0.19783738  0.69729745    -0.12130
C604        C  0.80223675  0.19850642  0.64820700    -0.12130
C605        C  0.84196650  0.18057221  0.62465758     0.10020
C606        C  0.88063564  0.16272437  0.65073583    -0.12130
H607        H  0.90922606  0.14953568  0.72051967     0.14000
H608        H  0.76983907  0.21283260  0.71473906     0.14000
H609        H  0.77256821  0.21302943  0.62844309     0.14000
H610        H  0.91172957  0.14916667  0.63260683     0.14000
C611        C  0.70039524  0.16359760  0.87922626    -0.12130
C612        C  0.72336634  0.18281579  0.83955894     0.10020
C613        C  0.69659492  0.20189419  0.80208341    -0.12130
C614        C  0.64745792  0.20079883  0.80338002    -0.12130
C615        C  0.62430550  0.18077647  0.84232855     0.10020
C616        C  0.65070832  0.16242162  0.88052589    -0.12130
H617        H  0.72073576  0.14964950  0.90873168     0.14000
H618        H  0.71383191  0.21843079  0.77205656     0.14000
H619        H  0.62737205  0.21578261  0.77416680     0.14000
H620        H  0.63282334  0.14738443  0.91107239     0.14000
C621        C  0.82436407  0.37450749  0.79915596    -0.12130
C622        C  0.83987702  0.39797446  0.84005611     0.10020
C623        C  0.85533313  0.37166652  0.87956535    -0.12130
C624        C  0.85525615  0.32200121  0.87795983    -0.12130
C625        C  0.84079140  0.29877245  0.83643719     0.10020
C626        C  0.82517385  0.32531196  0.79721366    -0.12130
H627        H  0.81178604  0.39441264  0.76871281     0.14000
H628        H  0.86717621  0.38961048  0.91145275     0.14000
H629        H  0.86627142  0.30180922  0.90878358     0.14000
H630        H  0.81248042  0.30774479  0.76539984     0.14000
C631        C  0.85760068  0.62868259  0.87931588    -0.12130
C632        C  0.84151530  0.60263901  0.83991038     0.10020
C633        C  0.82659424  0.62636051  0.79892585    -0.12130
C634        C  0.82842832  0.67552670  0.79686197    -0.12130
C635        C  0.84441812  0.70185967  0.83608410     0.10020
C636        C  0.85847882  0.67834022  0.87762305    -0.12130
H637        H  0.86905261  0.61055325  0.91124882     0.14000
H638        H  0.81357435  0.60666998  0.76853665     0.14000
H639        H  0.81578302  0.69324090  0.76510626     0.14000
H640        H  0.86957916  0.69833604  0.90853583     0.14000
C641        C  0.90129075  0.44880102  0.77656373    -0.12060
C642        C  0.92619280  0.42524159  0.75065798    -0.13620
C643        C  0.77578557  0.44943328  0.90070061    -0.12060
C644        C  0.74983264  0.42591129  0.92560551    -0.13620
C645        C  0.75017279  0.57557588  0.92531907    -0.12060
C646        C  0.77624538  0.55211250  0.90046134    -0.13620
C647        C  0.92680829  0.57442293  0.75056919    -0.12060
C648        C  0.90191371  0.55085677  0.77646088    -0.13620
loop_ 
_geom_bond_atom_site_label_1 
_geom_bond_atom_site_label_2 
_geom_bond_distance 
_geom_bond_site_symmetry_2 
_ccdc_geom_bond_type 
C1            C2   1.415       .  A
C1            C6   1.415       .  A
C1          C632   1.476       .  S
C2            C3   1.406       .  A
C2          C648   1.458       .  S
C3            C4   1.415       .  A
C3          C641   1.458       .  S
C4            C5   1.415       .  A
C4          C622   1.476       .  S
C5            C6   1.410       .  A
C5          C643   1.457       .  S
C6          C646   1.458       .  S
C7            C8   1.397       .  A
C7           C12   1.399       .  A
C7          C602   1.466       .  S
C8            C9   1.401       .  A
C8           H13   1.085       .  S
C9           C10   1.400       .  A
C9          C625   1.465       .  S
C10          C11   1.398       .  A
C10          H14   1.085       .  S
C11          C12   1.399       .  A
C11         C612   1.464       .  S
C12          H15   1.086       .  S
C16          C17   1.415       .  A
C16          C21   1.412       .  A
C16         C615   1.471       .  S
C17          C18   1.408       .  A
C17         C598   1.458       .  S
C18          C19   1.414       .  A
C18         C594   1.457       .  S
C19          C20   1.416       .  A
C19         C584   1.473       .  S
C20          C21   1.406       .  A
C20         C595   1.458       .  S
C21         C600   1.457       .  S
C22          C23   1.412       .  A
C22          C27   1.413       .  A
C22         C566   1.470       .  S
C23          C24   1.408       .  A
C23         C581   1.456       .  S
C24          C25   1.415       .  A
C24         C577   1.459       .  S
C25          C26   1.413       .  A
C25         C556   1.471       .  S
C26          C27   1.407       .  A
C26         C575   1.456       .  S
C27         C579   1.456       .  S
C28          C29   1.399       .  A
C28          C33   1.398       .  A
C28         C559   1.463       .  S
C29          C30   1.399       .  A
C29          H34   1.086       .  S
C30          C31   1.397       .  A
C30         C587   1.466       .  S
C31          C32   1.401       .  A
C31          H35   1.085       .  S
C32          C33   1.400       .  A
C32         C546   1.464       .  S
C33          H36   1.085       .  S
C37          C38   1.411       .  A
C37          C42   1.413       .  A
C37         C518   1.469       .  S
C38          C39   1.406       .  A
C38         C537   1.457       .  S
C39          C40   1.416       .  A
C39         C543   1.457       .  S
C40          C41   1.415       .  A
C40         C528   1.476       .  S
C41          C42   1.410       .  A
C41         C542   1.457       .  S
C42         C540   1.458       .  S
C43          C44   1.400       .  A
C43          C48   1.399       .  A
C43         C569   1.461       .  S
C44          C45   1.398       .  A
C44          H49   1.085       .  S
C45          C46   1.399       .  A
C45         C508   1.465       .  S
C46          C47   1.398       .  A
C46          H50   1.086       .  S
C47          C48   1.398       .  A
C47         C521   1.462       .  S
C48          H51   1.085       .  S
C52          C53   1.415       .  A
C52          C57   1.415       .  A
C52         C490   1.476       .  S
C53          C54   1.409       .  A
C53         C505   1.457       .  S
C54          C55   1.414       .  A
C54         C502   1.457       .  S
C55          C56   1.415       .  A
C55         C480   1.475       .  S
C56          C57   1.406       .  A
C56         C499   1.458       .  S
C57         C504   1.458       .  S
C58          C59   1.416       .  A
C58          C63   1.414       .  A
C58         C511   1.475       .  S
C59          C60   1.406       .  A
C59         C477   1.457       .  S
C60          C61   1.412       .  A
C60         C473   1.457       .  S
C61          C62   1.414       .  A
C61         C462   1.471       .  S
C62          C63   1.408       .  A
C62         C471   1.458       .  S
C63         C475   1.457       .  S
C64          C65   1.397       .  A
C64          C69   1.399       .  A
C64         C452   1.466       .  S
C65          C66   1.401       .  A
C65          H70   1.085       .  S
C66          C67   1.400       .  A
C66         C483   1.465       .  S
C67          C68   1.398       .  A
C67          H71   1.085       .  S
C68          C69   1.399       .  A
C68         C465   1.463       .  S
C69          H72   1.086       .  S
C73          C74   1.416       .  A
C73          C78   1.414       .  A
C73         C455   1.473       .  S
C74          C75   1.407       .  A
C74         C449   1.459       .  S
C75          C76   1.414       .  A
C75         C444   1.459       .  S
C76          C77   1.413       .  A
C76         C434   1.472       .  S
C77          C78   1.408       .  A
C77         C445   1.456       .  S
C78         C448   1.457       .  S
C79          C80   1.416       .  A
C79          C84   1.413       .  A
C79         C416   1.474       .  S
C80          C81   1.408       .  A
C80         C432   1.459       .  S
C81          C82   1.414       .  A
C81         C426   1.457       .  S
C82          C83   1.416       .  A
C82         C406   1.475       .  S
C83          C84   1.407       .  A
C83         C427   1.458       .  S
C84         C429   1.457       .  S
C85          C86   1.398       .  A
C85          C90   1.399       .  A
C85         C437   1.464       .  S
C86          C87   1.400       .  A
C86          H91   1.085       .  S
C87          C88   1.401       .  A
C87         C409   1.464       .  S
C88          C89   1.397       .  A
C88          H92   1.085       .  S
C89          C90   1.399       .  A
C89         C396   1.466       .  S
C90          H93   1.086       .  S
C94          C95   1.414       .  A
C94          C99   1.416       .  A
C94         C549   1.475       .  S
C95          C96   1.407       .  A
C95         C388   1.457       .  S
C96          C97   1.416       .  A
C96         C393   1.459       .  S
C97          C98   1.413       .  A
C97         C399   1.473       .  S
C98          C99   1.408       .  A
C98         C391   1.458       .  S
C99         C390   1.457       .  S
C100        C101   1.416       .  A
C100        C105   1.414       .  A
C100        C370   1.474       .  S
C101        C102   1.406       .  A
C101        C385   1.458       .  S
C102        C103   1.412       .  A
C102        C381   1.457       .  S
C103        C104   1.414       .  A
C103        C360   1.470       .  S
C104        C105   1.409       .  A
C104        C379   1.459       .  S
C105        C384   1.457       .  S
C106        C107   1.415       .  A
C106        C111   1.413       .  A
C106        C605   1.473       .  S
C107        C108   1.406       .  A
C107        C356   1.459       .  S
C108        C109   1.415       .  A
C108        C351   1.458       .  S
C109        C110   1.415       .  A
C109        C342   1.476       .  S
C110        C111   1.409       .  A
C110        C354   1.457       .  S
C111        C357   1.457       .  S
C112        C113   1.401       .  A
C112        C117   1.400       .  A
C112        C345   1.465       .  S
C113        C114   1.397       .  A
C113        H118   1.085       .  S
C114        C115   1.399       .  A
C114        C419   1.466       .  S
C115        C116   1.399       .  A
C115        H119   1.086       .  S
C116        C117   1.398       .  A
C116        C363   1.463       .  S
C117        H120   1.085       .  S
C121        C122   1.416       .  A
C121        C126   1.415       .  A
C121        C324   1.476       .  S
C122        C123   1.406       .  A
C122        C339   1.457       .  S
C123        C124   1.411       .  A
C123        C333   1.457       .  S
C124        C125   1.414       .  A
C124        C314   1.470       .  S
C125        C126   1.410       .  A
C125        C335   1.459       .  S
C126        C337   1.457       .  S
C127        C128   1.397       .  A
C127        C132   1.399       .  A
C127        C373   1.466       .  S
C128        C129   1.401       .  A
C128        H133   1.085       .  S
C129        C130   1.400       .  A
C129        C493   1.465       .  S
C130        C131   1.399       .  A
C130        H134   1.085       .  S
C131        C132   1.399       .  A
C131        C317   1.462       .  S
C132        H135   1.086       .  S
C136        C137   1.398       .  A
C136        C141   1.400       .  A
C136        C635   1.466       .  S
C137        C138   1.400       .  A
C137        H142   1.085       .  S
C138        C139   1.398       .  A
C138        C531   1.466       .  S
C139        C140   1.400       .  A
C139        H143   1.085       .  S
C140        C141   1.398       .  A
C140        C327   1.466       .  S
C141        H144   1.085       .  S
O145       Cu153   2.016   1_655  S
O145        C155   1.277       .  A
O146       Cu153   2.015       .  S
O146        C156   1.277       .  A
O147       Cu153   2.017       .  S
O147        C157   1.277       .  A
O148       Cu153   2.016   1_655  S
O148        C158   1.277       .  A
O149       Cu154   2.018   1_655  S
O149        C158   1.277       .  A
O150       Cu154   2.019       .  S
O150        C157   1.277       .  A
O151       Cu154   2.018       .  S
O151        C156   1.277       .  A
O152       Cu154   2.020   1_655  S
O152        C155   1.278       .  A
Cu153      Cu154   2.377       .  S
C155        C338   1.442       .  S
C156        C580   1.440       .  S
C157        C476   1.441       .  S
C158        C647   1.440       .  S
O159       Cu167   2.019       .  S
O159        C169   1.277       .  A
O160       Cu167   2.017   1_565  S
O160        C170   1.277       .  A
O161       Cu167   2.020   1_565  S
O161        C171   1.278       .  A
O162       Cu167   2.020       .  S
O162        C172   1.278       .  A
O163       Cu168   2.016       .  S
O163        C172   1.277       .  A
O164       Cu168   2.016   1_565  S
O164        C171   1.277       .  A
O165       Cu168   2.015   1_565  S
O165        C170   1.277       .  A
O166       Cu168   2.017       .  S
O166        C169   1.277       .  A
Cu167      Cu168   2.376       .  S
C169        C597   1.442       .  S
C170        C340   1.440       .  S
C171        C541   1.442       .  S
C172        C355   1.442       .  S
O173       Cu181   2.018       .  S
O173        C183   1.277       .  A
O174       Cu181   2.017   1_556  S
O174        C184   1.277       .  A
O175       Cu181   2.021   1_556  S
O175        C185   1.278       .  A
O176       Cu181   2.019       .  S
O176        C186   1.277       .  A
O177       Cu182   2.016       .  S
O177        C186   1.277       .  A
O178       Cu182   2.017   1_556  S
O178        C185   1.277       .  A
O179       Cu182   2.015   1_556  S
O179        C184   1.277       .  A
O180       Cu182   2.016       .  S
O180        C183   1.277       .  A
Cu181      Cu182   2.377       .  S
C183        C383   1.441       .  S
C184        C544   1.440       .  S
C185        C645   1.442       .  S
C186        C503   1.441       .  S
O187       Cu195   2.015       .  S
O187        C197   1.277       .  A
O188       Cu195   2.014   1_565  S
O188        C198   1.277       .  A
O189       Cu195   2.018   1_565  S
O189        C199   1.278       .  A
O190       Cu195   2.017       .  S
O190        C200   1.278       .  A
O191       Cu196   2.017       .  S
O191        C200   1.277       .  A
O192       Cu196   2.019   1_565  S
O192        C199   1.277       .  A
O193       Cu196   2.019   1_565  S
O193        C198   1.278       .  A
O194       Cu196   2.020       .  S
O194        C197   1.278       .  A
Cu195      Cu196   2.376       .  S
C197        C593   1.441       .  S
C198        C478   1.441       .  S
C199        C539   1.442       .  S
C200        C389   1.441       .  S
O201       Cu209   2.019   1_655  S
O201        C211   1.277       .  A
O202       Cu209   2.018       .  S
O202        C212   1.277       .  A
O203       Cu209   2.019       .  S
O203        C213   1.277       .  A
O204       Cu209   2.019   1_655  S
O204        C214   1.277       .  A
O205       Cu210   2.016   1_655  S
O205        C214   1.277       .  A
O206       Cu210   2.016       .  S
O206        C213   1.277       .  A
O207       Cu210   2.016       .  S
O207        C212   1.277       .  A
O208       Cu210   2.017   1_655  S
O208        C211   1.277       .  A
Cu209      Cu210   2.377       .  S
C211        C358   1.442       .  S
C212        C576   1.440       .  S
C213        C387   1.441       .  S
C214        C642   1.441       .  S
O215       Cu223   2.015       .  S
O215        C225   1.277       .  A
O216       Cu223   2.014   1_556  S
O216        C226   1.277       .  A
O217       Cu223   2.017   1_556  S
O217        C227   1.277       .  A
O218       Cu223   2.017       .  S
O218        C228   1.277       .  A
O219       Cu224   2.017       .  S
O219        C228   1.277       .  A
O220       Cu224   2.017   1_556  S
O220        C227   1.277       .  A
O221       Cu224   2.019   1_556  S
O221        C226   1.277       .  A
O222       Cu224   2.020       .  S
O222        C225   1.278       .  A
Cu223      Cu224   2.377       .  S
C225        C447   1.441       .  S
C226        C538   1.440       .  S
C227        C582   1.441       .  S
C228        C500   1.441       .  S
O229       Cu237   2.018   1_556  S
O229        C239   1.277       .  A
O230       Cu237   2.019       .  S
O230        C240   1.277       .  A
O231       Cu237   2.022       .  S
O231        C241   1.278       .  A
O232       Cu237   2.019   1_556  S
O232        C242   1.278       .  A
O233       Cu238   2.014   1_556  S
O233        C242   1.277       .  A
O234       Cu238   2.017       .  S
O234        C241   1.277       .  A
O235       Cu238   2.019       .  S
O235        C240   1.278       .  A
O236       Cu238   2.018   1_556  S
O236        C239   1.278       .  A
Cu237      Cu238   2.376       .  S
C239        C644   1.441       .  S
C240        C431   1.442       .  S
C241        C380   1.443       .  S
C242        C599   1.440       .  S
O243       Cu251   2.014   1_565  S
O243        C253   1.277       .  A
O244       Cu251   2.015       .  S
O244        C254   1.277       .  A
O245       Cu251   2.017       .  S
O245        C255   1.277       .  A
O246       Cu251   2.017   1_565  S
O246        C256   1.278       .  A
O247       Cu252   2.018   1_565  S
O247        C256   1.277       .  A
O248       Cu252   2.017       .  S
O248        C255   1.277       .  A
O249       Cu252   2.020       .  S
O249        C254   1.278       .  A
O250       Cu252   2.019   1_565  S
O250        C253   1.277       .  A
Cu251      Cu252   2.377       .  S
C253        C334   1.440       .  S
C254        C430   1.441       .  S
C255        C352   1.441       .  S
C256        C506   1.441       .  S
O257       Cu265   2.020   1_655  S
O257        C267   1.278       .  A
O258       Cu265   2.020       .  S
O258        C268   1.277       .  A
O259       Cu265   2.021       .  S
O259        C269   1.278       .  A
O260       Cu265   2.019   1_655  S
O260        C270   1.277       .  A
O261       Cu266   2.016   1_655  S
O261        C270   1.277       .  A
O262       Cu266   2.017       .  S
O262        C269   1.277       .  A
O263       Cu266   2.018       .  S
O263        C268   1.278       .  A
O264       Cu266   2.019   1_655  S
O264        C267   1.278       .  A
Cu265      Cu266   2.376       .  S
C267        C336   1.443       .  S
C268        C450   1.442       .  S
C269        C472   1.442       .  S
C270        C386   1.441       .  S
O271       Cu279   2.015   1_655  S
O271        C281   1.277       .  A
O272       Cu279   2.017       .  S
O272        C282   1.277       .  A
O273       Cu279   2.017       .  S
O273        C283   1.277       .  A
O274       Cu279   2.016   1_655  S
O274        C284   1.277       .  A
O275       Cu280   2.018   1_655  S
O275        C284   1.277       .  A
O276       Cu280   2.019       .  S
O276        C283   1.277       .  A
O277       Cu280   2.021       .  S
O277        C282   1.278       .  A
O278       Cu280   2.019   1_655  S
O278        C281   1.277       .  A
Cu279      Cu280   2.376       .  S
C281        C353   1.441       .  S
C282        C443   1.442       .  S
C283        C394   1.442       .  S
C284        C382   1.440       .  S
O285       Cu293   2.018       .  S
O285        C295   1.277       .  A
O286       Cu293   2.017   1_565  S
O286        C296   1.277       .  A
O287       Cu293   2.020   1_565  S
O287        C297   1.278       .  A
O288       Cu293   2.021       .  S
O288        C298   1.278       .  A
O289       Cu294   2.017       .  S
O289        C298   1.277       .  A
O290       Cu294   2.016   1_565  S
O290        C297   1.277       .  A
O291       Cu294   2.016   1_565  S
O291        C296   1.277       .  A
O292       Cu294   2.016       .  S
O292        C295   1.277       .  A
Cu293      Cu294   2.377       .  S
C295        C428   1.441       .  S
C296        C474   1.440       .  S
C297        C501   1.441       .  S
C298        C392   1.442       .  S
O299       Cu307   2.016       .  S
O299        C309   1.277       .  A
O300       Cu307   2.017   1_556  S
O300        C310   1.277       .  A
O301       Cu307   2.016   1_556  S
O301        C311   1.277       .  A
O302       Cu307   2.015       .  S
O302        C312   1.277       .  A
O303       Cu308   2.017       .  S
O303        C312   1.277       .  A
O304       Cu308   2.018   1_556  S
O304        C311   1.277       .  A
O305       Cu308   2.021   1_556  S
O305        C310   1.278       .  A
O306       Cu308   2.020       .  S
O306        C309   1.278       .  A
Cu307      Cu308   2.377       .  S
C309        C425   1.441       .  S
C310        C578   1.443       .  S
C311        C596   1.441       .  S
C312        C446   1.440       .  S
C313        C314   1.395       .  A
C313        C318   1.385       .  A
C313        H319   1.083       .  S
C314        C315   1.405       .  A
C315        C316   1.399       .  A
C315        H320   1.083       .  S
C316        C317   1.399       .  A
C316        H321   1.083       .  S
C317        C318   1.404       .  A
C318        H322   1.082       .  S
C323        C324   1.405       .  A
C323        C328   1.399       .  A
C323        H329   1.083       .  S
C324        C325   1.398       .  A
C325        C326   1.386       .  A
C325        H330   1.083       .  S
C326        C327   1.404       .  A
C326        H331   1.084       .  S
C327        C328   1.401       .  A
C328        H332   1.083       .  S
C333        C334   1.209       .  T
C335        C336   1.211       .  T
C337        C338   1.210       .  T
C339        C340   1.209       .  T
C341        C342   1.405       .  A
C341        C346   1.398       .  A
C341        H347   1.083       .  S
C342        C343   1.398       .  A
C343        C344   1.386       .  A
C343        H348   1.083       .  S
C344        C345   1.404       .  A
C344        H349   1.084       .  S
C345        C346   1.400       .  A
C346        H350   1.083       .  S
C351        C352   1.210       .  T
C353        C354   1.210       .  T
C355        C356   1.210       .  T
C357        C358   1.210       .  T
C359        C360   1.405       .  A
C359        C364   1.399       .  A
C359        H365   1.083       .  S
C360        C361   1.395       .  A
C361        C362   1.385       .  A
C361        H366   1.084       .  S
C362        C363   1.404       .  A
C362        H367   1.081       .  S
C363        C364   1.399       .  A
C364        H368   1.083       .  S
C369        C370   1.396       .  A
C369        C374   1.384       .  A
C369        H375   1.084       .  S
C370        C371   1.406       .  A
C371        C372   1.399       .  A
C371        H376   1.083       .  S
C372        C373   1.401       .  A
C372        H377   1.083       .  S
C373        C374   1.404       .  A
C374        H378   1.081       .  S
C379        C380   1.211       .  T
C381        C382   1.209       .  T
C383        C384   1.210       .  T
C385        C386   1.210       .  T
C387        C388   1.210       .  T
C389        C390   1.210       .  T
C391        C392   1.210       .  T
C393        C394   1.210       .  T
C395        C396   1.404       .  A
C395        C400   1.383       .  A
C395        H401   1.080       .  S
C396        C397   1.401       .  A
C397        C398   1.400       .  A
C397        H402   1.083       .  S
C398        C399   1.406       .  A
C398        H403   1.083       .  S
C399        C400   1.395       .  A
C400        H404   1.084       .  S
C405        C406   1.398       .  A
C405        C410   1.386       .  A
C405        H411   1.083       .  S
C406        C407   1.405       .  A
C407        C408   1.398       .  A
C407        H412   1.083       .  S
C408        C409   1.400       .  A
C408        H413   1.083       .  S
C409        C410   1.404       .  A
C410        H414   1.084       .  S
C415        C416   1.406       .  A
C415        C420   1.400       .  A
C415        H421   1.083       .  S
C416        C417   1.396       .  A
C417        C418   1.384       .  A
C417        H422   1.084       .  S
C418        C419   1.404       .  A
C418        H423   1.081       .  S
C419        C420   1.401       .  A
C420        H424   1.083       .  S
C425        C426   1.210       .  T
C427        C428   1.210       .  T
C429        C430   1.210       .  T
C431        C432   1.211       .  T
C433        C434   1.406       .  A
C433        C438   1.400       .  A
C433        H439   1.083       .  S
C434        C435   1.395       .  A
C435        C436   1.384       .  A
C435        H440   1.084       .  S
C436        C437   1.403       .  A
C436        H441   1.081       .  S
C437        C438   1.399       .  A
C438        H442   1.083       .  S
C443        C444   1.211       .  T
C445        C446   1.209       .  T
C447        C448   1.210       .  T
C449        C450   1.211       .  T
C451        C452   1.400       .  A
C451        C456   1.400       .  A
C451        H457   1.083       .  S
C452        C453   1.404       .  A
C453        C454   1.384       .  A
C453        H458   1.080       .  S
C454        C455   1.395       .  A
C454        H459   1.084       .  S
C455        C456   1.406       .  A
C456        H460   1.083       .  S
C461        C462   1.395       .  A
C461        C466   1.384       .  A
C461        H467   1.084       .  S
C462        C463   1.406       .  A
C463        C464   1.400       .  A
C463        H468   1.083       .  S
C464        C465   1.399       .  A
C464        H469   1.083       .  S
C465        C466   1.403       .  A
C466        H470   1.081       .  S
C471        C472   1.211       .  T
C473        C474   1.209       .  T
C475        C476   1.210       .  T
C477        C478   1.210       .  T
C479        C480   1.398       .  A
C479        C484   1.386       .  A
C479        H485   1.083       .  S
C480        C481   1.405       .  A
C481        C482   1.399       .  A
C481        H486   1.083       .  S
C482        C483   1.400       .  A
C482        H487   1.083       .  S
C483        C484   1.404       .  A
C484        H488   1.084       .  S
C489        C490   1.398       .  A
C489        C494   1.386       .  A
C489        H495   1.083       .  S
C490        C491   1.405       .  A
C491        C492   1.399       .  A
C491        H496   1.083       .  S
C492        C493   1.400       .  A
C492        H497   1.083       .  S
C493        C494   1.404       .  A
C494        H498   1.084       .  S
C499        C500   1.210       .  T
C501        C502   1.210       .  T
C503        C504   1.210       .  T
C505        C506   1.210       .  T
C507        C508   1.400       .  A
C507        C512   1.399       .  A
C507        H513   1.083       .  S
C508        C509   1.404       .  A
C509        C510   1.385       .  A
C509        H514   1.083       .  S
C510        C511   1.397       .  A
C510        H515   1.084       .  S
C511        C512   1.406       .  A
C512        H516   1.083       .  S
C517        C518   1.395       .  A
C517        C522   1.386       .  A
C517        H523   1.083       .  S
C518        C519   1.405       .  A
C519        C520   1.399       .  A
C519        H524   1.083       .  S
C520        C521   1.399       .  A
C520        H525   1.083       .  S
C521        C522   1.404       .  A
C522        H526   1.083       .  S
C527        C528   1.398       .  A
C527        C532   1.386       .  A
C527        H533   1.083       .  S
C528        C529   1.405       .  A
C529        C530   1.398       .  A
C529        H534   1.083       .  S
C530        C531   1.401       .  A
C530        H535   1.083       .  S
C531        C532   1.404       .  A
C532        H536   1.084       .  S
C537        C538   1.209       .  T
C539        C540   1.210       .  T
C541        C542   1.210       .  T
C543        C544   1.209       .  T
C545        C546   1.400       .  A
C545        C550   1.398       .  A
C545        H551   1.083       .  S
C546        C547   1.404       .  A
C547        C548   1.386       .  A
C547        H552   1.084       .  S
C548        C549   1.398       .  A
C548        H553   1.083       .  S
C549        C550   1.405       .  A
C550        H554   1.083       .  S
C555        C556   1.405       .  A
C555        C560   1.400       .  A
C555        H561   1.083       .  S
C556        C557   1.395       .  A
C557        C558   1.384       .  A
C557        H562   1.084       .  S
C558        C559   1.403       .  A
C558        H563   1.081       .  S
C559        C560   1.399       .  A
C560        H564   1.083       .  S
C565        C566   1.404       .  A
C565        C570   1.398       .  A
C565        H571   1.083       .  S
C566        C567   1.396       .  A
C567        C568   1.387       .  A
C567        H572   1.083       .  S
C568        C569   1.403       .  A
C568        H573   1.084       .  S
C569        C570   1.399       .  A
C570        H574   1.083       .  S
C575        C576   1.209       .  T
C577        C578   1.211       .  T
C579        C580   1.209       .  T
C581        C582   1.210       .  T
C583        C584   1.395       .  A
C583        C588   1.384       .  A
C583        H589   1.084       .  S
C584        C585   1.406       .  A
C585        C586   1.400       .  A
C585        H590   1.083       .  S
C586        C587   1.400       .  A
C586        H591   1.083       .  S
C587        C588   1.404       .  A
C588        H592   1.080       .  S
C593        C594   1.210       .  T
C595        C596   1.210       .  T
C597        C598   1.210       .  T
C599        C600   1.209       .  T
C601        C602   1.400       .  A
C601        C606   1.400       .  A
C601        H607   1.083       .  S
C602        C603   1.404       .  A
C603        C604   1.383       .  A
C603        H608   1.080       .  S
C604        C605   1.395       .  A
C604        H609   1.084       .  S
C605        C606   1.406       .  A
C606        H610   1.083       .  S
C611        C612   1.399       .  A
C611        C616   1.400       .  A
C611        H617   1.083       .  S
C612        C613   1.403       .  A
C613        C614   1.384       .  A
C613        H618   1.080       .  S
C614        C615   1.395       .  A
C614        H619   1.084       .  S
C615        C616   1.406       .  A
C616        H620   1.083       .  S
C621        C622   1.398       .  A
C621        C626   1.386       .  A
C621        H627   1.083       .  S
C622        C623   1.405       .  A
C623        C624   1.399       .  A
C623        H628   1.083       .  S
C624        C625   1.400       .  A
C624        H629   1.083       .  S
C625        C626   1.404       .  A
C626        H630   1.084       .  S
C631        C632   1.405       .  A
C631        C636   1.399       .  A
C631        H637   1.083       .  S
C632        C633   1.398       .  A
C633        C634   1.386       .  A
C633        H638   1.083       .  S
C634        C635   1.404       .  A
C634        H639   1.084       .  S
C635        C636   1.401       .  A
C636        H640   1.083       .  S
C641        C642   1.210       .  T
C643        C644   1.210       .  T
C645        C646   1.210       .  T
C647        C648   1.209       .  T
