geometry optimzed in LAMMPS
_audit_creation_date              2020-11-30 
_audit_creation_method            'lammps2cif' 
_symmetry_space_group_name_H-M    'P1' 
_symmetry_Int_Tables_number       1 
_symmetry_cell_setting            triclinic 
loop_ 
_symmetry_equiv_pos_as_xyz 
  x,y,z 
_cell_length_a                    43.43326892 
_cell_length_b                    43.40885723471997 
_cell_length_c                    45.083756364006426 
_cell_angle_alpha                 90.49980106192729 
_cell_angle_beta                  89.49005747697883 
_cell_angle_gamma                 120.42434580843052 
loop_ 
_atom_site_label 
_atom_site_type_symbol 
_atom_site_fract_x 
_atom_site_fract_y 
_atom_site_fract_z 
_atom_site_charge 
O1          O  0.04773347  0.19575520  0.33622331    -0.87500
C2          C  0.07896764  0.14867074  0.39916855     0.88500
Mg3        Mg  0.01944911  0.17001799  0.29560590     1.58100
O4          O  0.14635777  0.21425793  0.35335299    -0.87300
O5          O  0.09320048  0.24500998  0.35265871    -0.74600
C6          C  0.11263742  0.09985849  0.23757965     0.93500
O7          O  0.00766715  0.11255175  0.35200231    -0.74400
O8          O  0.08018132  0.09263740  0.23734436    -0.81900
Mg9        Mg  0.02528516  0.16554943  0.37674458     1.58000
C10         C  0.21848202  0.18428448  0.31727927     0.93500
O11         O  0.03555382  0.21229292  0.40674539    -0.80200
H12         H  0.17481154  0.26397662  0.33760592    -0.05500
C13         C  0.10527762  0.10965474  0.32500152     0.88400
O14         O  0.07085632  0.19709593  0.26768924    -0.74700
O15         O  0.07737330  0.17333210  0.38731690    -0.87500
O16         O  0.20885119  0.19403822  0.34046510    -0.80300
C17         C  0.18418939  0.22169312  0.42338120     0.93600
C18         C  0.05862946  0.23529160  0.42430607     0.93400
Mg19       Mg  0.14701203  0.17131681  0.28338086     1.58000
O20         O  0.13572624  0.12331509  0.25483462    -0.80200
O21         O  0.16479960  0.22521932  0.30718451    -0.74400
O22         O  0.15718909  0.22608582  0.42447482    -0.80300
O23         O  0.47217285  0.16144609  0.36631898    -0.82000
O24         O  0.01597286  0.11443658  0.23464985    -0.80300
C25         C  0.16259826  0.23566875  0.33317131     0.87900
O26         O  0.09545633  0.16436426  0.27257320    -0.87400
O27         O  0.12483414  0.14244811  0.32427880    -0.87500
O28         O  0.07788119  0.09359158  0.30858999    -0.74600
Mg29       Mg  0.12064568  0.22898739  0.38775883     1.58000
O30         O  0.18737259  0.20249292  0.40354999    -0.82000
H31         H  0.05876105  0.24373952  0.32183638    -0.05700
O32         O  0.02540772  0.12465506  0.30571841    -0.87200
H33         H  0.99655269  0.07458996  0.32059212    -0.05500
H34         H  0.11614834  0.20700139  0.24608770    -0.05700
C35         C  0.00909682  0.10279656  0.32560546     0.87800
C36         C  0.06591395  0.22862869  0.33629540     0.88400
C37         C  0.09497445  0.18985627  0.26120793     0.88500
H38         H  0.11135305  0.09431936  0.34016569    -0.05700
O39         O  0.10395723  0.14257410  0.39299573    -0.74700
Mg40       Mg  0.05118843  0.10931679  0.27216437     1.58000
H41         H  0.05825688  0.13145844  0.41460414    -0.05700
C42         C  0.45414863  0.15410139  0.34262975     0.93500
O43         O  0.48782532  0.14070758  0.25481956    -0.81900
C44         C  0.99005437  0.12070157  0.23521262     0.93500
O45         O  0.09130418  0.24331923  0.42373975    -0.81900
Mg46       Mg  0.15461828  0.17054206  0.36397759     1.58200
O47         O  0.46504405  0.14841693  0.31810568    -0.80300
O48         O  0.19964912  0.17434245  0.29398364    -0.81900
C49         C  0.12458064  0.07953568  0.21890722    -0.10000
C50         C  0.11901652  0.04741840  0.23065205    -0.03900
C51         C  0.13511881  0.02940336  0.21815842    -0.10000
C52         C  0.15622422  0.04253245  0.19250159     0.10900
C53         C  0.16319052  0.07557518  0.18062074    -0.01800
C54         C  0.14747443  0.09433189  0.19375730     0.10700
C55         C  0.15530421  0.12724543  0.18139994    -0.11800
C56         C  0.17823529  0.14147781  0.15681933    -0.11800
C57         C  0.19446612  0.12350536  0.14402964     0.10700
C58         C  0.18658545  0.09013801  0.15593474    -0.01800
C59         C  0.17084199  0.02361879  0.17870710    -0.12000
C60         C  0.19234241  0.03710973  0.15367094    -0.12000
C61         C  0.20093317  0.07050522  0.14229790     0.10900
C62         C  0.22344206  0.08474962  0.11740844    -0.10000
C63         C  0.23356071  0.11870596  0.10760961    -0.03900
C64         C  0.21818535  0.13747019  0.11943843    -0.10000
H65         H  0.14364097  0.14215048  0.19064187     0.08200
H66         H  0.18363331  0.16691921  0.14810103     0.08200
H67         H  0.16558104  0.49808647  0.18707853     0.08400
H68         H  0.20301283  0.02164231  0.14371305     0.08400
H69         H  0.10334748  0.03716554  0.25084475     0.04800
H70         H  0.24983542  0.12853213  0.08762314     0.04800
C71         C  0.39868519  0.04114617  0.22390470    -0.10000
C72         C  0.43250398  0.06577026  0.23476243    -0.03900
C73         C  0.45660049  0.09642728  0.21885351    -0.10000
C74         C  0.44551391  0.10344685  0.19134191     0.10900
C75         C  0.41181948  0.07744665  0.17943196    -0.01800
C76         C  0.38890275  0.04577093  0.19548820     0.10700
C77         C  0.35671627  0.01949797  0.18285380    -0.11800
C78         C  0.34738553  0.02364464  0.15450395    -0.11800
C79         C  0.36897451  0.05503498  0.13853596     0.10700
C80         C  0.40076402  0.08292582  0.15141475    -0.01800
C81         C  0.46653080  0.13522404  0.17544216    -0.12000
C82         C  0.45475956  0.14136177  0.14834351    -0.12000
C83         C  0.42201318  0.11549454  0.13582188     0.10900
C84         C  0.41021609  0.12013294  0.10765131    -0.10000
C85         C  0.37959300  0.09148580  0.09512925    -0.03900
C86         C  0.35985765  0.05892382  0.10966902    -0.10000
H87         H  0.33888543  0.49504716  0.19450815     0.08200
H88         H  0.32274529  0.00224616  0.14535074     0.08200
H89         H  0.99212199  0.15559376  0.18400250     0.08400
H90         H  0.47178935  0.16626901  0.13697684     0.08400
H91         H  0.43992847  0.06134761  0.25658160     0.04800
H92         H  0.37190145  0.09396481  0.07281820     0.04800
O93         O  0.02667122  0.37276656  0.34828862    -0.87500
C94         C  0.12030350  0.37899115  0.36387056     0.88500
Mg95       Mg  0.00691651  0.36675195  0.30441569     1.58100
O96         O  0.11785539  0.45878579  0.37469623    -0.87300
O97         O  0.03608262  0.40364703  0.38915661    -0.74600
C98         C  0.13104221  0.49843782  0.23425102     0.93500
O99         O  0.06289036  0.33499269  0.31169092    -0.74400
O100        O  0.10568355  0.46765745  0.22761367    -0.81900
Mg101      Mg  0.04305600  0.33583737  0.35944744     1.58000
C102        C  0.20296323  0.05100148  0.33815552     0.93500
O103        O  0.02282829  0.33263674  0.40645736    -0.80200
H104        H  0.09991933  0.48766492  0.39537658    -0.05500
C105        C  0.15838801  0.44948950  0.29439012     0.88400
O106        O  0.02352463  0.42615530  0.30386005    -0.74700
O107        O  0.09361945  0.38066410  0.37062623    -0.87500
O108        O  0.19551900  0.02731385  0.35770106    -0.80300
C109        C  0.17555243  0.44873450  0.42388361     0.93600
C110        C  0.04185401  0.33738179  0.42909182     0.93400
Mg111      Mg  0.13013783  0.49870577  0.30383717     1.58000
O112        O  0.15037321  0.00337904  0.25670692    -0.80200
O113        O  0.11082299  0.49884335  0.35156674    -0.74400
O114        O  0.14266226  0.42586838  0.42567089    -0.80300
O115        O  0.48849550  0.28997498  0.34862974    -0.82000
O116        O  0.03129155  0.40869107  0.23762871    -0.80300
C117        C  0.10940656  0.48202960  0.37494909     0.87900
O118        O  0.08001601  0.45317545  0.29242664    -0.87400
O119        O  0.14775694  0.46227745  0.31373951    -0.87500
O120        O  0.13893835  0.43241420  0.27241271    -0.74600
Mg121      Mg  0.09128193  0.41476821  0.40477453     1.58000
O122        O  0.18931694  0.46977447  0.40214124    -0.82000
H123        H  0.99090656  0.38463345  0.36466632    -0.05700
O124        O  0.05765048  0.37582505  0.28795973    -0.87200
H125        H  0.07584338  0.34666020  0.26812130    -0.05500
H126        H  0.05401952  0.47985345  0.29837997    -0.05700
C127        C  0.06582420  0.35237572  0.28820629     0.87800
C128        C  0.01660750  0.38665843  0.36713246     0.88400
C129        C  0.05277076  0.45433701  0.29797930     0.88500
H130        H  0.18454326  0.45246179  0.29643206    -0.05700
O131        O  0.14935866  0.40673267  0.35683562    -0.74700
Mg132      Mg  0.08318293  0.42019417  0.25777722     1.58000
H133        H  0.11855105  0.35324746  0.36307482    -0.05700
C134        C  0.47099666  0.28397188  0.32485275     0.93500
O135        O  0.48609085  0.36090029  0.25864111    -0.81900
C136        C  0.49897379  0.38403989  0.23831061     0.93500
O137        O  0.06754465  0.36799605  0.43559999    -0.81900
Mg138      Mg  0.16783849  0.46639747  0.35700458     1.58200
O139        O  0.48173967  0.30612262  0.30367470    -0.80300
O140        O  0.18382671  0.04555173  0.31543329    -0.81900
O141        O  0.37238642  0.38658536  0.32756562    -0.87500
C142        C  0.31163572  0.40911109  0.27138624     0.88500
Mg143      Mg  0.35008971  0.35723674  0.36837054     1.58100
O144        O  0.37637722  0.48151168  0.31282469    -0.87300
O145        O  0.41620229  0.43697916  0.31052805    -0.74600
C146        C  0.27782459  0.44173874  0.43612082     0.93500
O147        O  0.28637181  0.33817985  0.31657699    -0.74400
O148        O  0.27393153  0.41063504  0.43497835    -0.81900
Mg149      Mg  0.33810288  0.36178628  0.28890407     1.58000
C150        C  0.34028447  0.04760700  0.35239102     0.93500
O151        O  0.38252924  0.37738855  0.25564684    -0.80200
H152        H  0.42732482  0.51732135  0.32183089    -0.05500
C153        C  0.27523388  0.43366201  0.34756349     0.88400
O154        O  0.37569016  0.40924366  0.39644001    -0.74700
O155        O  0.33856139  0.41071814  0.28186525    -0.87500
O156        O  0.34843057  0.03878772  0.32788798    -0.80300
C157        C  0.37444721  0.51180595  0.24377613     0.93600
C158        C  0.40230577  0.40190772  0.23763933     0.93400
Mg159      Mg  0.34149490  0.48149307  0.38442881     1.58000
O160        O  0.29728369  0.46589796  0.41774449    -0.80200
O161        O  0.39318390  0.50534539  0.35666112    -0.74400
O162        O  0.37259568  0.48174105  0.24157994    -0.80300
O163        O  0.34089061  0.31175607  0.29564133    -0.82000
O164        O  0.30610248  0.35857384  0.43202643    -0.80300
C165        C  0.40011272  0.50214075  0.32982131     0.87900
O166        O  0.34145991  0.43226916  0.39212611    -0.87400
O167        O  0.30741586  0.45598886  0.34600885    -0.87500
O168        O  0.26364181  0.40618621  0.36383453    -0.74600
Mg169      Mg  0.39096153  0.45765231  0.27722290     1.58000
O170        O  0.35870837  0.01836281  0.26462215    -0.82000
H171        H  0.42304881  0.40570816  0.33985108    -0.05700
O172        O  0.30306254  0.36085705  0.36080657    -0.87200
H173        H  0.25204241  0.32579186  0.35131447    -0.05500
H174        H  0.38558254  0.45527283  0.41692772    -0.05700
C175        C  0.27934517  0.34084704  0.34351004     0.87800
C176        C  0.40452863  0.40922269  0.32646357     0.88400
C177        C  0.36817990  0.43335181  0.40250825     0.88500
H178        H  0.25659991  0.43725377  0.33440620    -0.05700
O179        O  0.30352022  0.43276482  0.27740092    -0.74700
Mg180      Mg  0.28889236  0.38504132  0.39684783     1.58000
H181        H  0.29443865  0.38694794  0.25709126    -0.05700
C182        C  0.33725982  0.29401777  0.31890714     0.93500
O183        O  0.32044507  0.32272565  0.40821302    -0.81900
C184        C  0.30360033  0.32820109  0.42881076     0.93500
O185        O  0.40689056  0.43316446  0.23944972    -0.81900
Mg186      Mg  0.32953652  0.48492458  0.30493050     1.58200
O187        O  0.33273877  0.30390193  0.34442812    -0.80300
O188        O  0.33624121  0.03040353  0.37613599    -0.81900
C189        C  0.47418039  0.38507148  0.21773195    -0.10000
C190        C  0.45654881  0.40195872  0.22861860    -0.03900
C191        C  0.42399158  0.39433085  0.21710424    -0.10000
C192        C  0.41023904  0.37182451  0.19180831     0.10900
C193        C  0.43012541  0.35728802  0.17874614    -0.01800
C194        C  0.46218790  0.36366175  0.19206986     0.10700
C195        C  0.48114975  0.34829110  0.17971553    -0.11800
C196        C  0.46930360  0.32769733  0.15391591    -0.11800
C197        C  0.43755439  0.32093139  0.14021009     0.10700
C198        C  0.41728773  0.33522609  0.15315727    -0.01800
C199        C  0.37736063  0.36335252  0.17935432    -0.12000
C200        C  0.36482391  0.34200098  0.15391235    -0.12000
C201        C  0.38458086  0.32808934  0.14033260     0.10900
C202        C  0.37291991  0.30769669  0.11398658    -0.10000
C203        C  0.39373567  0.29480311  0.10095578    -0.03900
C204        C  0.42577036  0.30087862  0.11360640    -0.10000
H205        H  0.00576709  0.35284888  0.18958584     0.08200
H206        H  0.48513979  0.31699653  0.14482043     0.08200
H207        H  0.36152003  0.37382483  0.18889404     0.08400
H208        H  0.33962488  0.33670949  0.14477340     0.08400
H209        H  0.46586106  0.41741995  0.24905514     0.04800
H210        H  0.38508816  0.28019789  0.08013800     0.04800
O211        O  0.21565633  0.03638869  0.00762144    -0.87500
C212        C  0.23312960  0.47009115  0.06073209     0.88500
Mg213      Mg  0.18897554  0.01641440  0.96594615     1.58100
O214        O  0.30863220  0.03600841  0.02372466    -0.87300
O215        O  0.26657183  0.07807597  0.02607097    -0.74600
C216        C  0.27202737  0.44517173  0.90033919     0.93500
O217        O  0.16554871  0.44912375  0.01544043    -0.74400
O218        O  0.24229108  0.44382968  0.90014373    -0.81900
Mg219      Mg  0.18882110  0.49973881  0.04436578     1.58000
C220        C  0.37873829  0.00828864  0.98430575     0.93500
O221        O  0.20505816  0.04440191  0.07782802    -0.80200
H222        H  0.34591501  0.08752003  0.01903891    -0.05500
C223        C  0.26242150  0.43796918  0.98591251     0.88400
O224        O  0.24299430  0.04402067  0.94071328    -0.74700
O225        O  0.23631477  0.49821784  0.05130076    -0.87500
O226        O  0.36559204  0.00858327  0.00950846    -0.80300
C227        C  0.33229075  0.02905607  0.09231027     0.93600
C228        C  0.22951543  0.06261784  0.09644520     0.93400
Mg229      Mg  0.31249414  0.00732630  0.95250705     1.58000
O230        O  0.29620358  0.46322749  0.91914745    -0.80200
O231        O  0.33591063  0.05733512  0.98181783    -0.74400
O232        O  0.30063588  0.02301551  0.09274608    -0.80300
O233        O  0.13883299  0.50182677  0.03679755    -0.82000
O234        O  0.19887927  0.48178777  0.90386730    -0.80300
C235        C  0.33098411  0.06134572  0.00892868     0.87900
O236        O  0.26460419  0.00851411  0.94545816    -0.87400
O237        O  0.28526164  0.46989962  0.98883090    -0.87500
O238        O  0.23529673  0.42795516  0.96950135    -0.74600
Mg239      Mg  0.28360042  0.04895374  0.05874811     1.58000
O240        O  0.34188429  0.01407994  0.07306784    -0.82000
H241        H  0.23724643  0.08792193  0.99688625    -0.05700
O242        O  0.19263419  0.46959485  0.97332029    -0.87200
H243        H  0.15603365  0.41799659  0.97884116    -0.05500
H244        H  0.29039326  0.05428404  0.92282308    -0.05700
C245        C  0.17066670  0.44445108  0.98850173     0.87800
C246        C  0.23933538  0.06816890  0.00976555     0.88400
C247        C  0.26713906  0.03623860  0.93573718     0.88500
H248        H  0.26513184  0.41818293  0.99817781    -0.05700
O249        O  0.25671808  0.46160569  0.05554805    -0.74700
Mg250      Mg  0.21762614  0.45734413  0.93774702     1.58000
H251        H  0.20965249  0.45219731  0.07348519    -0.05700
C252        C  0.12181865  0.49669415  0.01282775     0.93500
O253        O  0.15732802  0.48956931  0.92434400    -0.81900
C254        C  0.16698102  0.47502466  0.90477804     0.93500
O255        O  0.25944192  0.06429180  0.09595540    -0.81900
Mg256      Mg  0.31099318  0.48841060  0.03089873     1.58200
O257        O  0.13421083  0.49475180  0.98770615    -0.80300
O258        O  0.36262275  0.00511432  0.96012723    -0.81900
O259        O  0.20037349  0.19289586  0.98900981    -0.87500
C260        C  0.20647864  0.28803992  0.97579151     0.88500
Mg261      Mg  0.19935303  0.17303569  0.03278451     1.58100
O262        O  0.28357050  0.28231445  0.95866836    -0.87300
O263        O  0.22499596  0.20071425  0.94538182    -0.74600
C264        C  0.34040267  0.30043532  0.09790075     0.93500
O265        O  0.16860705  0.22969215  0.03131010    -0.74400
O266        O  0.31040018  0.27382632  0.10518489    -0.81900
Mg267      Mg  0.16231294  0.20952664  0.98262230     1.58000
C268        C  0.37920703  0.37103341  0.99067567     0.93500
O269        O  0.14838926  0.18933792  0.93481177    -0.80200
H270        H  0.31013808  0.26325450  0.93585325    -0.05500
C271        C  0.28337424  0.32437212  0.04143511     0.88400
O272        O  0.25881072  0.18991835  0.02866904    -0.74700
O273        O  0.20598826  0.26044691  0.96811163    -0.87500
O274        O  0.35527558  0.35901992  0.97090157    -0.80300
C275        C  0.27519123  0.34077201  0.90911097     0.93600
C276        C  0.15465683  0.20621339  0.91051800     0.93400
Mg277      Mg  0.33216814  0.29742133  0.02705046     1.58000
O278        O  0.34375340  0.31855627  0.07484956    -0.80200
O279        O  0.32636670  0.27686301  0.97857466    -0.74400
O280        O  0.24965002  0.30863298  0.90844262    -0.80300
O281        O  0.11864564  0.15326207  0.99494780    -0.82000
O282        O  0.24571622  0.19611158  0.09982875    -0.80300
C283        C  0.30669872  0.27378216  0.95664684     0.87900
O284        O  0.28847722  0.24621301  0.04130183    -0.87400
O285        O  0.29401703  0.31371500  0.02044417    -0.87500
O286        O  0.26966775  0.30530194  0.06439243    -0.74600
Mg287      Mg  0.23632405  0.25633257  0.93107680     1.58000
O288        O  0.29632233  0.35363710  0.93089328    -0.82000
H289        H  0.20801127  0.15564164  0.96963911    -0.05700
O290        O  0.21100286  0.22378781  0.05136133    -0.87200
H291        H  0.18466283  0.24315128  0.07408638    -0.05500
H292        H  0.31297001  0.21910682  0.03052913    -0.05700
C293        C  0.18809894  0.23259382  0.05330421     0.87800
C294        C  0.21076733  0.18177313  0.96823319     0.88400
C295        C  0.28801752  0.21863037  0.03362178     0.88500
H296        H  0.28566539  0.35031609  0.04022776    -0.05700
O297        O  0.23566084  0.31666898  0.98090878    -0.74700
Mg298      Mg  0.25862060  0.24951990  0.07871680     1.58000
H299        H  0.18153614  0.28758785  0.97887170    -0.05700
C300        C  0.11603958  0.13448569  0.01727151     0.93500
O301        O  0.19725459  0.15230191  0.07817189    -0.81900
C302        C  0.21959179  0.16415228  0.09913075     0.93500
O303        O  0.18553044  0.23188956  0.90396154    -0.81900
Mg304      Mg  0.29488615  0.33330650  0.97658102     1.58200
O305        O  0.13882612  0.14696234  0.03795956    -0.80300
O306        O  0.37636080  0.35318054  0.01374670    -0.81900
O307        O  0.01204771  0.30802137  0.01798405    -0.87500
C308        C  0.42007831  0.21229004  0.02627749     0.88500
Mg309      Mg  0.03614756  0.33394785  0.97642252     1.58100
O310        O  0.00229418  0.21692215  0.04287959    -0.87300
O311        O  0.02372828  0.29650210  0.06209508    -0.74600
C312        C  0.04443573  0.20911564  0.89928029     0.93500
O313        O  0.44648007  0.27478031  0.97361272    -0.74400
O314        O  0.04571028  0.23837492  0.89290021    -0.81900
Mg315      Mg  0.45673562  0.29085640  0.02321665     1.58000
C316        C  0.01212364  0.13436071  0.00198262     0.93500
O317        O  0.46218872  0.30841635  0.07204266    -0.80200
H318        H  0.04909107  0.23720034  0.06387608    -0.05500
C319        C  0.46451386  0.18634747  0.95627742     0.88400
O320        O  0.07695952  0.31558523  0.97858621    -0.74700
O321        O  0.44737163  0.23881259  0.03540916    -0.87500
O322        O  0.49841973  0.14351989  0.02264786    -0.80300
C323        C  0.43177098  0.15012873  0.08709386     0.93600
C324        C  0.44780370  0.29034541  0.09538650     0.93400
Mg325      Mg  0.03880628  0.21002041  0.97023519     1.58000
O326        O  0.02685336  0.19116774  0.92171580    -0.80200
O327        O  0.05171615  0.22705796  0.02003669    -0.74400
O328        O  0.43826800  0.18191275  0.09233801    -0.80300
O329        O  0.46809519  0.34681989  0.01289506    -0.82000
O330        O  0.06046908  0.32090053  0.90229576    -0.80300
C331        C  0.03471397  0.22736324  0.04326481     0.87900
O332        O  0.04959268  0.26251275  0.95880133    -0.87400
O333        O  0.48475291  0.19468137  0.97774151    -0.87500
O334        O  0.47223924  0.20707392  0.93413616    -0.74600
Mg335      Mg  0.47838150  0.23917616  0.07300810     1.58000
O336        O  0.44108681  0.14186020  0.06297936    -0.82000
H337        H  0.05489714  0.34354582  0.04082052    -0.05700
O338        O  0.49693194  0.28726115  0.95163144    -0.87200
H339        H  0.45081502  0.26678626  0.92969137    -0.05500
H340        H  0.10060458  0.28610261  0.97140084    -0.05700
C341        C  0.46448013  0.27623210  0.95063989     0.87800
C342        C  0.03127545  0.31728686  0.04011368     0.88400
C343        C  0.07683943  0.28798036  0.96918214     0.88500
H344        H  0.43992904  0.16084591  0.95618934    -0.05700
O345        O  0.42043021  0.18445087  0.01821889    -0.74700
Mg346      Mg  0.01898126  0.26362968  0.92162994     1.58000
H347        H  0.39573231  0.21315607  0.02435854    -0.05700
C348        C  0.48688151  0.36922362  0.99307126     0.93500
O349        O  0.06114038  0.36121844  0.93371668    -0.81900
C350        C  0.06905361  0.35310105  0.90882665     0.93500
O351        O  0.44947866  0.26246605  0.10135535    -0.81900
Mg352      Mg  0.46348882  0.16882130  0.01981257     1.58200
O353        O  0.00505101  0.36316964  0.97424953    -0.80300
O354        O  0.02703653  0.15408284  0.97974702    -0.81900
O355        O  0.18036216  0.14189199  0.68014134    -0.87500
C356        C  0.09192295  0.04986479  0.70063408     0.88500
Mg357      Mg  0.19119043  0.16072325  0.63557237     1.58100
O358        O  0.17376847  0.05088982  0.70733802    -0.87300
O359        O  0.20348607  0.13337245  0.71995726    -0.74600
C360        C  0.19683821  0.03573701  0.56576636     0.93500
O361        O  0.10413063  0.10528702  0.64775805    -0.74400
O362        O  0.19190666  0.06102139  0.55854050    -0.81900
Mg363      Mg  0.12803357  0.12686205  0.69458385     1.58000
C364        C  0.17608324  0.46372511  0.66927648     0.93500
O365        O  0.14924327  0.14824377  0.74024259    -0.80200
H366        H  0.22154176  0.06833278  0.72581623    -0.05500
C367        C  0.12039291  0.00927526  0.62793888     0.88400
O368        O  0.23416194  0.14449353  0.63229880    -0.74700
O369        O  0.12118569  0.07630087  0.70616848    -0.87500
O370        O  0.16071106  0.47173826  0.68947049    -0.80300
C371        C  0.10773599  0.49518310  0.75988461     0.93600
C372        C  0.13421932  0.13026021  0.76329419     0.93400
Mg373      Mg  0.19804453  0.03691624  0.63483053     1.58000
O374        O  0.18080393  0.01653536  0.58807158    -0.80200
O375        O  0.21948217  0.05667391  0.68188970    -0.74400
O376        O  0.11916929  0.02833678  0.76203819    -0.80300
O377        O  0.13802136  0.18168608  0.68421139    -0.82000
O378        O  0.20787377  0.13620110  0.56880548    -0.80300
C379        C  0.20535911  0.05875008  0.70605976     0.87900
O380        O  0.20353204  0.08737817  0.62346223    -0.87400
O381        O  0.14422908  0.02030912  0.64677382    -0.87500
O382        O  0.12294535  0.02808157  0.60556521    -0.74600
Mg383      Mg  0.15920277  0.07913642  0.73857404     1.58000
O384        O  0.11282406  0.48103158  0.73701579    -0.82000
H385        H  0.22973496  0.17726963  0.69379760    -0.05700
O386        O  0.14847502  0.10947435  0.62101087    -0.87200
H387        H  0.09940905  0.09006021  0.60439278    -0.05500
H388        H  0.25681901  0.11377797  0.62644999    -0.05700
C389        C  0.11675618  0.10109822  0.62338495     0.87800
C390        C  0.20549580  0.15206801  0.69763590     0.88400
C391        C  0.23252591  0.11491258  0.62725416     0.88500
H392        H  0.09683490  0.98322698  0.63064020    -0.05700
O393        O  0.08929225  0.02050230  0.69301947    -0.74700
Mg394      Mg  0.16686598  0.08378459  0.58967338     1.58000
H395        H  0.06826907  0.05215749  0.70127420    -0.05700
C396        C  0.14807465  0.19850310  0.65998073     0.93500
O397        O  0.20202924  0.17980293  0.58892146    -0.81900
C398        C  0.21404894  0.16799340  0.56898283     0.93500
O399        O  0.13893220  0.10497884  0.77082199    -0.81900
Mg400      Mg  0.12937832  0.00109875  0.69089714     1.58200
O401        O  0.15600295  0.18602622  0.63753919    -0.80300
O402        O  0.18973651  0.48267109  0.64629141    -0.81900
C403        C  0.12421403  0.19764451  0.89093816    -0.10000
C404        C  0.09894082  0.20606524  0.90143472    -0.03900
C405        C  0.06889023  0.19897744  0.88480557    -0.10000
C406        C  0.06264427  0.18065269  0.85727075     0.10900
C407        C  0.08848912  0.17248700  0.84616160    -0.01800
C408        C  0.11984628  0.18200020  0.86271974     0.10700
C409        C  0.14579207  0.17516688  0.85088996    -0.11800
C410        C  0.14150317  0.15980848  0.82303248    -0.11800
C411        C  0.11043694  0.14937207  0.80657081     0.10700
C412        C  0.08312063  0.15474978  0.81843537    -0.01800
C413        C  0.03138187  0.16973633  0.84079080    -0.12000
C414        C  0.02548178  0.15100519  0.81393213    -0.12000
C415        C  0.05101148  0.14324099  0.80228514     0.10900
C416        C  0.04637275  0.12561006  0.77445563    -0.10000
C417        C  0.07447360  0.12222430  0.76281743    -0.03900
C418        C  0.10633460  0.13434959  0.77817309    -0.10000
H419        H  0.16992258  0.18205505  0.86290797     0.08200
H420        H  0.16269226  0.15587465  0.81461860     0.08200
H421        H  0.01111998  0.17534707  0.84874926     0.08400
H422        H  0.50095080  0.14304878  0.80213617     0.08400
H423        H  0.10293226  0.21874963  0.92304672     0.04800
H424        H  0.07172447  0.11036149  0.74097648     0.04800
C425        C  0.08997992  0.38351025  0.88828688    -0.10000
C426        C  0.12175625  0.41169626  0.89995878    -0.03900
C427        C  0.13940795  0.44554726  0.88695771    -0.10000
C428        C  0.12664443  0.45143048  0.86042929     0.10900
C429        C  0.09403265  0.42389167  0.84848127    -0.01800
C430        C  0.07546021  0.38972704  0.86225908     0.10700
C431        C  0.04249830  0.36362290  0.85018473    -0.11800
C432        C  0.02798317  0.37103886  0.82536608    -0.11800
C433        C  0.04575823  0.40490383  0.81197737     0.10700
C434        C  0.07935501  0.43127806  0.82340466    -0.01800
C435        C  0.14547752  0.48446424  0.84589270    -0.12000
C436        C  0.13238892  0.49062917  0.82001944    -0.12000
C437        C  0.09911797  0.46471070  0.80888586     0.10900
C438        C  0.08515519  0.47111233  0.78323237    -0.10000
C439        C  0.05047385  0.44736970  0.77477958    -0.03900
C440        C  0.03136519  0.41372181  0.78742514    -0.10000
H441        H  0.02757662  0.33735541  0.85999728     0.08200
H442        H  0.50243209  0.35033834  0.81699939     0.08200
H443        H  0.17078640  0.50564260  0.85423518     0.08400
H444        H  0.14790492  0.01633503  0.80936100     0.08400
H445        H  0.13149969  0.40801486  0.92096094     0.04800
H446        H  0.04048115  0.45295877  0.75468733     0.04800
O447        O  0.35894319  0.03900876  0.68521444    -0.87500
C448        C  0.45339834  0.04196708  0.69254572     0.88500
Mg449      Mg  0.33333109  0.03660563  0.64338602     1.58100
O450        O  0.45007742  0.12010555  0.71058943    -0.87300
O451        O  0.37031651  0.06205720  0.72970788    -0.74600
C452        C  0.45816762  0.17242066  0.56731256     0.93500
O453        O  0.39198371  0.00693724  0.64028204    -0.74400
O454        O  0.42899763  0.14374870  0.56096764    -0.81900
Mg455      Mg  0.37556203  0.00059352  0.68996149     1.58000
C456        C  0.03259063  0.21298223  0.67112237     0.93500
O457        O  0.35777858  0.48767980  0.73880680    -0.80200
H458        H  0.42972773  0.14618662  0.73237070    -0.05500
C459        C  0.48082323  0.11480799  0.62282819     0.88400
O460        O  0.35106343  0.09598656  0.64619727    -0.74700
O461        O  0.42746526  0.04306996  0.70248948    -0.87500
O462        O  0.02397491  0.18934859  0.69079130    -0.80300
C463        C  0.01653918  0.11638351  0.75373896     0.93600
C464        C  0.37582417  0.99180173  0.76213008     0.93400
Mg465      Mg  0.45672699  0.16452942  0.63892147     1.58000
O466        O  0.47589915  0.17400936  0.59014574    -0.80200
O467        O  0.43962857  0.15916419  0.68869533    -0.74400
O468        O  0.48450594  0.09173040  0.75951912    -0.80300
O469        O  0.31995242  0.45605947  0.67937619    -0.82000
O470        O  0.34657598  0.07390587  0.56985109    -0.80300
C471        C  0.43958541  0.14190794  0.71155080     0.87900
O472        O  0.40430370  0.12261504  0.62667111    -0.87400
O473        O  0.47192236  0.12557125  0.64487557    -0.87500
O474        O  0.46036851  0.10200437  0.60050454    -0.74600
Mg475      Mg  0.42744797  0.07408378  0.74037595     1.58000
O476        O  0.02494128  0.13297622  0.72930417    -0.82000
H477        H  0.32359879  0.04636275  0.70829960    -0.05700
O478        O  0.38041270  0.04527231  0.61875583    -0.87200
H479        H  0.40092967  0.01966905  0.59657108    -0.05500
H480        H  0.38030666  0.14951580  0.63954762    -0.05700
C481        C  0.39123121  0.02379844  0.61753123     0.87800
C482        C  0.34969807  0.04896229  0.70754303     0.88400
C483        C  0.37864644  0.12391488  0.63708217     0.88500
H484        H  0.50655711  0.11656883  0.62239946    -0.05700
O485        O  0.48104908  0.07003506  0.68378101    -0.74700
Mg486      Mg  0.40375716  0.09115054  0.58900341     1.58000
H487        H  0.45197025  0.01646146  0.69023398    -0.05700
C488        C  0.29850750  0.45211686  0.65888149     0.93500
O489        O  0.30616830  0.03319990  0.60055808    -0.81900
C490        C  0.31451132  0.04935833  0.57589037     0.93500
O491        O  0.40370763  0.02175878  0.76822290    -0.81900
Mg492      Mg  0.49765501  0.12907608  0.68664457     1.58200
O493        O  0.30548561  0.47614928  0.63990621    -0.80300
O494        O  0.01252819  0.20877680  0.64943655    -0.81900
O495        O  0.47476978  0.34453007  0.65535705    -0.87500
C496        C  0.38087617  0.25403087  0.64067573     0.88500
Mg497      Mg  0.49496751  0.36151534  0.69975481     1.58100
O498        O  0.38468953  0.33633193  0.62575762    -0.87300
O499        O  0.46648738  0.36161966  0.61233213    -0.74600
C500        C  0.36964615  0.37553524  0.76623276     0.93500
O501        O  0.43851402  0.27390153  0.69485050    -0.74400
O502        O  0.39578724  0.37183789  0.77360347    -0.81900
Mg503      Mg  0.45905248  0.29019904  0.64631516     1.58000
C504        C  0.29597449  0.34105593  0.66083505     0.93500
O505        O  0.47973410  0.30046672  0.59857470    -0.80200
H506        H  0.40356879  0.38254259  0.60411544    -0.05500
C507        C  0.34360523  0.29329256  0.70907156     0.88400
O508        O  0.47906058  0.40484461  0.69855588    -0.74700
O509        O  0.40786167  0.28175048  0.63280633    -0.87500
O510        O  0.30626156  0.32730563  0.64099775    -0.80300
C511        C  0.32618567  0.26862944  0.57589821     0.93600
C512        C  0.46182266  0.28677878  0.57510062     0.93400
Mg513      Mg  0.37122599  0.36937043  0.69577436     1.58000
O514        O  0.35094001  0.35953759  0.74360273    -0.80200
O515        O  0.39110277  0.38460427  0.64737668    -0.74400
O516        O  0.35869338  0.27710993  0.57358297    -0.80300
O517        O  0.01540249  0.30349290  0.65744686    -0.82000
O518        O  0.47260300  0.38316269  0.76795734    -0.80300
C519        C  0.39337114  0.36818204  0.62469976     0.87900
O520        O  0.42241611  0.37688268  0.70954626    -0.87400
O521        O  0.35465843  0.31460756  0.68826833    -0.87500
O522        O  0.36259612  0.29859607  0.73193419    -0.74600
Mg523      Mg  0.41106920  0.31641054  0.59686048     1.58000
O524        O  0.31371955  0.27530582  0.59904748    -0.82000
H525        H  0.51113389  0.39082809  0.63707384    -0.05700
O526        O  0.44397197  0.32127278  0.71748795    -0.87200
H527        H  0.42418764  0.27417943  0.73793214    -0.05500
H528        H  0.44988732  0.42945855  0.70181749    -0.05700
C529        C  0.43507721  0.28933392  0.71778171     0.87800
C530        C  0.48538402  0.36670341  0.63521047     0.88400
C531        C  0.45020507  0.40478240  0.70340321     0.88500
H532        H  0.31736924  0.26970630  0.70779043    -0.05700
O533        O  0.35229912  0.25371632  0.64722989    -0.74700
Mg534      Mg  0.41882450  0.34321847  0.74626559     1.58000
H535        H  0.38195421  0.22981342  0.64289981    -0.05700
C536        C  0.03391119  0.31853340  0.68028557     0.93500
O537        O  0.01538537  0.37733929  0.74593647    -0.81900
C538        C  0.00404664  0.38796482  0.76736197     0.93500
O539        O  0.43550201  0.29048391  0.56858189    -0.81900
Mg540      Mg  0.33451498  0.29513418  0.64454109     1.58200
O541        O  0.02100392  0.32709610  0.70202314    -0.80300
O542        O  0.31523938  0.35749864  0.68313239    -0.81900
C543        C  0.27804014  0.36591399  0.88636977    -0.10000
C544        C  0.26484326  0.38760113  0.89517217    -0.03900
C545        C  0.27670349  0.42042159  0.88195281    -0.10000
C546        C  0.29949975  0.43086465  0.85705597     0.10900
C547        C  0.31052446  0.40739699  0.84590032    -0.01800
C548        C  0.30016560  0.37481728  0.86088939     0.10700
C549        C  0.31224425  0.35237343  0.85010845    -0.11800
C550        C  0.33276629  0.36096774  0.82421033    -0.11800
C551        C  0.34305413  0.39298998  0.80898174     0.10700
C552        C  0.33290549  0.41710740  0.82048927    -0.01800
C553        C  0.31158303  0.46398797  0.84326608    -0.12000
C554        C  0.33361161  0.47363167  0.81825274    -0.13800
C555        C  0.34434289  0.45050287  0.80633149     0.10900
C556        C  0.36549382  0.45936377  0.78027925    -0.10000
C557        C  0.37357163  0.43421026  0.76838361    -0.03900
C558        C  0.36259268  0.40128185  0.78221392    -0.10000
H559        H  0.30490430  0.32749464  0.86113859     0.08200
H560        H  0.34057616  0.34231357  0.81620775     0.08200
H561        H  0.30355270  0.48239850  0.85150390     0.08400
H562        H  0.34189938  0.99921606  0.80812941     0.08400
H563        H  0.24884645  0.38106442  0.91535441     0.04800
H564        H  0.38817944  0.44009938  0.74756657     0.04800
C565        C  0.03788019  0.30635978  0.44505080    -0.10000
C566        C  0.05094199  0.28657114  0.43091149    -0.03900
C567        C  0.04713811  0.25555401  0.44341423    -0.10000
C568        C  0.02807956  0.24291952  0.47072934     0.10900
C569        C  0.01603015  0.26386166  0.48580947    -0.01800
C570        C  0.02203058  0.29631719  0.47322747     0.10700
C571        C  0.01156030  0.31765460  0.48880691    -0.11800
C572        C  0.49523568  0.30732088  0.51637245    -0.11800
C573        C  0.48743391  0.27456630  0.52873113     0.10700
C574        C  0.49731155  0.25216921  0.51319874    -0.01800
C575        C  0.02029530  0.21011087  0.48326139    -0.12000
C576        C  0.50048284  0.19781485  0.50972438    -0.12000
C577        C  0.48859934  0.21833767  0.52499797     0.10900
C578        C  0.46877362  0.20667299  0.55196547    -0.10000
C579        C  0.46090449  0.23010756  0.56743325    -0.03900
C580        C  0.47032476  0.26385062  0.55644246    -0.10000
H581        H  0.01619400  0.34274751  0.47990793     0.08200
H582        H  0.48818347  0.32501139  0.52767242     0.08200
H583        H  0.02910232  0.19352848  0.47242978     0.08400
H584        H  0.49474366  0.17221440  0.51831755     0.08400
H585        H  0.06365269  0.29510645  0.40930564     0.04800
H586        H  0.44717901  0.22192668  0.58866528     0.04800
C587        C  0.27580822  0.29681727  0.44531432    -0.10000
C588        C  0.24281138  0.27605038  0.43100828    -0.03900
C589        C  0.21562959  0.24358175  0.44272512    -0.10000
C590        C  0.22165270  0.23139291  0.46977680     0.10900
C591        C  0.25502802  0.25197044  0.48449736    -0.01800
C592        C  0.28198297  0.28500379  0.47251115     0.10700
C593        C  0.31432456  0.30507565  0.48793152    -0.11800
C594        C  0.32031322  0.29288205  0.51465315    -0.11800
C595        C  0.29458332  0.25975056  0.52634175     0.10700
C596        C  0.26165726  0.23914217  0.51109555    -0.01800
C597        C  0.19534689  0.19911677  0.48239905    -0.12000
C598        C  0.20163663  0.18699247  0.50890054    -0.12000
C599        C  0.23468608  0.20640071  0.52325459     0.10900
C600        C  0.24160839  0.19419632  0.54975167    -0.10000
C601        C  0.27466251  0.21310004  0.56317493    -0.03900
C602        C  0.30023038  0.24653535  0.55316154    -0.10000
H603        H  0.33517114  0.33050142  0.47947599     0.08200
H604        H  0.34551601  0.30921797  0.52583041     0.08200
H605        H  0.16963345  0.18307020  0.47189231     0.08400
H606        H  0.18066759  0.16194323  0.51786159     0.08400
H607        H  0.23868801  0.28473605  0.40965795     0.04800
H608        H  0.27878177  0.20374949  0.58427362     0.04800
C609        C  0.19929536  0.45014353  0.44693353    -0.10000
C610        C  0.22117141  0.43681484  0.43926228    -0.03900
C611        C  0.25310014  0.44797000  0.45394382    -0.10000
C612        C  0.26237880  0.47170064  0.47872886     0.10900
C613        C  0.23769630  0.48199427  0.48867963    -0.01800
C614        C  0.20580772  0.47083974  0.47265972     0.10700
C615        C  0.18148192  0.48107027  0.48231145    -0.11800
C616        C  0.18764015  0.00088025  0.50812186    -0.11800
C617        C  0.21917158  0.01261566  0.52426258     0.10700
C618        C  0.24525114  0.00447277  0.51390184    -0.01800
C619        C  0.29498475  0.48536402  0.49382842    -0.12000
C620        C  0.30274901  0.00803128  0.51863526    -0.12000
C621        C  0.27816010  0.01781124  0.52918475     0.10900
C622        C  0.28458954  0.03945557  0.55504357    -0.10000
C623        C  0.25750012  0.04532862  0.56554312    -0.03900
C624        C  0.22490873  0.03169399  0.55088331    -0.10000
H625        H  0.15691316  0.47283205  0.47045964     0.08200
H626        H  0.16757155  0.00719514  0.51519645     0.08200
H627        H  0.31443996  0.47820562  0.48671866     0.08400
H628        H  0.32802573  0.01757746  0.52971018     0.08400
H629        H  0.21543769  0.42109666  0.41898283     0.04800
H630        H  0.26131735  0.05967988  0.58630058     0.04800
C631        C  0.99831126  0.46875702  0.99788331     0.03100
C632        C  0.03055146  0.99997176  0.00567346     0.03100
C633        C  0.03204346  0.03328267  0.00747998     0.03100
C634        C  0.00143527  0.03518408  0.00095508     0.03100
C635        C  0.46924164  0.00400146  0.99326847     0.03100
C636        C  0.46744848  0.47058698  0.99247652     0.03100
C637        C  0.33165105  0.13554149  0.34042754     0.03100
C638        C  0.36612165  0.16496336  0.33589100     0.03100
C639        C  0.37056818  0.19821206  0.32745018     0.03100
C640        C  0.34041622  0.20215071  0.32368252     0.03100
C641        C  0.30584942  0.17246778  0.32722177     0.03100
C642        C  0.30144214  0.13928138  0.33600158     0.03100
C643        C  0.16827170  0.36621733  0.66957455     0.03100
C644        C  0.13465467  0.33467932  0.67256850     0.03100
C645        C  0.13219638  0.30124080  0.66932261     0.03100
C646        C  0.16298209  0.29891061  0.66368919     0.03100
C647        C  0.19678443  0.33041278  0.66181958     0.03100
C648        C  0.19910460  0.36389249  0.66399703     0.03100
C649        C  0.07091976  0.32790268  0.68065025    -0.12500
C650        C  0.10164757  0.33505738  0.67796450    -0.14000
C651        C  0.26032388  0.33545359  0.65881745    -0.12500
C652        C  0.22998442  0.32981252  0.65905943    -0.14000
C653        C  0.26386127  0.42074748  0.65856152    -0.12500
C654        C  0.23384786  0.39583949  0.66064592    -0.14000
C655        C  0.06725001  0.24423778  0.67240158    -0.12500
C656        C  0.09729437  0.26924204  0.67144821    -0.14000
C657        C  0.15907455  0.26396752  0.66008122    -0.12500
C658        C  0.15293964  0.23364373  0.65862163    -0.14000
C659        C  0.17532695  0.43048231  0.67157789    -0.12500
C660        C  0.17157067  0.40102285  0.67157105    -0.14000
C661        C  0.00375767  0.06978791  0.00213058    -0.12500
C662        C  0.00855066  0.09968641  0.00293688    -0.14000
C663        C  0.49594111  0.43413330  0.99550029    -0.12500
C664        C  0.49053233  0.40402154  0.99344092    -0.14000
C665        C  0.06469204  0.06656480  0.01475190    -0.12500
C666        C  0.08810638  0.09742372  0.01795081    -0.14000
C667        C  0.43396696  0.43718144  0.98809052    -0.12500
C668        C  0.40914247  0.40678130  0.98767953    -0.14000
C669        C  0.41193327  0.00894998  0.98388421    -0.12500
C670        C  0.43808276  0.00652256  0.98699574    -0.14000
C671        C  0.08839814  0.49554941  0.01341308    -0.12500
C672        C  0.06196544  0.49761993  0.01102603    -0.14000
C673        C  0.32873484  0.10169151  0.34834670    -0.12500
C674        C  0.33364143  0.07695864  0.35231543    -0.14000
C675        C  0.34374454  0.23668699  0.31834770    -0.12500
C676        C  0.34064483  0.26277410  0.31694826    -0.14000
C677        C  0.23606092  0.08384833  0.34053247    -0.12500
C678        C  0.26585460  0.10918993  0.33969418    -0.14000
C679        C  0.43660582  0.25255397  0.32272805    -0.12500
C680        C  0.40627710  0.22815494  0.32365434    -0.14000
C681        C  0.25028977  0.18175930  0.31859798    -0.12500
C682        C  0.27500817  0.17673756  0.32216452    -0.14000
C683        C  0.42185799  0.15565563  0.34249138    -0.12500
C684        C  0.39695994  0.16051744  0.33989992    -0.14000
O685        O  0.04773358  0.69575524  0.33622330    -0.87500
C686        C  0.07896764  0.64867071  0.39916854     0.88500
Mg687      Mg  0.01944913  0.67001806  0.29560591     1.58100
O688        O  0.14635774  0.71425799  0.35335299    -0.87300
O689        O  0.09320047  0.74501008  0.35265873    -0.74600
C690        C  0.11263739  0.59985851  0.23757966     0.93500
O691        O  0.00766716  0.61255180  0.35200231    -0.74400
O692        O  0.08018129  0.59263745  0.23734436    -0.81900
Mg693      Mg  0.02528526  0.66554947  0.37674457     1.58000
C694        C  0.21848199  0.68428454  0.31727927     0.93500
O695        O  0.03555390  0.71229292  0.40674537    -0.80200
H696        H  0.17481151  0.76397668  0.33760592    -0.05500
C697        C  0.10527759  0.60965480  0.32500152     0.88400
O698        O  0.07085629  0.69709599  0.26768924    -0.74700
O699        O  0.07737331  0.67333210  0.38731693    -0.87500
O700        O  0.20885116  0.69403828  0.34046510    -0.80300
C701        C  0.18418940  0.72169314  0.42338120     0.93600
C702        C  0.05862947  0.73529162  0.42430608     0.93400
Mg703      Mg  0.14701200  0.67131687  0.28338086     1.58000
O704        O  0.13572621  0.62331514  0.25483461    -0.80200
O705        O  0.16479956  0.72521938  0.30718451    -0.74400
O706        O  0.15718913  0.72608590  0.42447481    -0.80300
O707        O  0.47217282  0.66144615  0.36631902    -0.82000
O708        O  0.01597292  0.61443662  0.23464981    -0.80300
C709        C  0.16259822  0.73566881  0.33317131     0.87900
O710        O  0.09545630  0.66436431  0.27257321    -0.87400
O711        O  0.12483410  0.64244817  0.32427880    -0.87500
O712        O  0.07788116  0.59359164  0.30859000    -0.74600
Mg713      Mg  0.12064568  0.72898744  0.38775884     1.58000
O714        O  0.18737259  0.70249296  0.40354998    -0.82000
H715        H  0.05876098  0.74373947  0.32183640    -0.05700
O716        O  0.02540769  0.62465511  0.30571840    -0.87200
H717        H  0.99655267  0.57459001  0.32059212    -0.05500
H718        H  0.11614826  0.70700140  0.24608769    -0.05700
C719        C  0.00909681  0.60279662  0.32560546     0.87800
C720        C  0.06591395  0.72862874  0.33629538     0.88400
C721        C  0.09497443  0.68985633  0.26120790     0.88500
H722        H  0.11135301  0.59431942  0.34016569    -0.05700
O723        O  0.10395725  0.64257411  0.39299571    -0.74700
Mg724      Mg  0.05118842  0.60931685  0.27216437     1.58000
H725        H  0.05825686  0.63145837  0.41460408    -0.05700
C726        C  0.45414859  0.65410144  0.34262979     0.93500
O727        O  0.48782529  0.64070765  0.25481956    -0.81900
C728        C  0.99005443  0.62070161  0.23521261     0.93500
O729        O  0.09130422  0.74331933  0.42373978    -0.81900
Mg730      Mg  0.15461827  0.67054212  0.36397758     1.58200
O731        O  0.46504402  0.64841700  0.31810572    -0.80300
O732        O  0.19964909  0.67434251  0.29398364    -0.81900
C733        C  0.12458058  0.57953564  0.21890723    -0.10000
C734        C  0.11901639  0.54741830  0.23065205    -0.03900
C735        C  0.13511870  0.52940325  0.21815841    -0.10000
C736        C  0.15622410  0.54253233  0.19250156     0.10900
C737        C  0.16319044  0.57557509  0.18062073    -0.01800
C738        C  0.14747436  0.59433183  0.19375728     0.10700
C739        C  0.15530421  0.62724544  0.18139995    -0.11800
C740        C  0.17823538  0.64147784  0.15681934    -0.11800
C741        C  0.19446614  0.62350532  0.14402966     0.10700
C742        C  0.18658543  0.59013794  0.15593475    -0.01800
C743        C  0.17084189  0.52361867  0.17870707    -0.12000
C744        C  0.19234242  0.53710964  0.15367093    -0.12000
C745        C  0.20093317  0.57050517  0.14229790     0.10900
C746        C  0.22344212  0.58474962  0.11740846    -0.10000
C747        C  0.23356082  0.61870598  0.10760963    -0.03900
C748        C  0.21818538  0.63747015  0.11943844    -0.10000
H749        H  0.14364103  0.64215048  0.19064184     0.08200
H750        H  0.18363345  0.66691921  0.14810106     0.08200
H751        H  0.16558114  0.99808660  0.18707858     0.08400
H752        H  0.20301285  0.52164233  0.14371312     0.08400
H753        H  0.10334739  0.53716545  0.25084473     0.04800
H754        H  0.24983554  0.62853217  0.08762322     0.04800
C755        C  0.39868520  0.54114620  0.22390472    -0.10000
C756        C  0.43250402  0.56577026  0.23476246    -0.03900
C757        C  0.45660047  0.59642731  0.21885353    -0.10000
C758        C  0.44551388  0.60344687  0.19134194     0.10900
C759        C  0.41181946  0.57744665  0.17943197    -0.01800
C760        C  0.38890275  0.54577097  0.19548824     0.10700
C761        C  0.35671633  0.51949796  0.18285380    -0.11800
C762        C  0.34738554  0.52364463  0.15450397    -0.11800
C763        C  0.36897451  0.55503495  0.13853595     0.10700
C764        C  0.40076405  0.58292578  0.15141472    -0.01800
C765        C  0.46653075  0.63522399  0.17544215    -0.12000
C766        C  0.45475958  0.64136174  0.14834349    -0.12000
C767        C  0.42201317  0.61549450  0.13582187     0.10900
C768        C  0.41021603  0.62013291  0.10765133    -0.10000
C769        C  0.37959292  0.59148580  0.09512928    -0.03900
C770        C  0.35985759  0.55892383  0.10966904    -0.10000
H771        H  0.33888533  0.99504724  0.19450816     0.08200
H772        H  0.32274527  0.50224613  0.14535077     0.08200
H773        H  0.99212204  0.65559374  0.18400250     0.08400
H774        H  0.47178937  0.66626895  0.13697684     0.08400
H775        H  0.43992857  0.56134759  0.25658157     0.04800
H776        H  0.37190137  0.59396483  0.07281824     0.04800
O777        O  0.02667124  0.87276659  0.34828863    -0.87500
C778        C  0.12030347  0.87899112  0.36387059     0.88500
Mg779      Mg  0.00691649  0.86675197  0.30441570     1.58100
O780        O  0.11785536  0.95878584  0.37469624    -0.87300
O781        O  0.03608275  0.90364708  0.38915660    -0.74600
C782        C  0.13104227  0.99843793  0.23425102     0.93500
O783        O  0.06289049  0.83499276  0.31169096    -0.74400
O784        O  0.10568356  0.96765757  0.22761370    -0.81900
Mg785      Mg  0.04305599  0.83583738  0.35944750     1.58000
C786        C  0.20296332  0.55100153  0.33815551     0.93500
O787        O  0.02282823  0.83263673  0.40645740    -0.80200
H788        H  0.09991938  0.98766504  0.39537657    -0.05500
C789        C  0.15838797  0.94948952  0.29439013     0.88400
O790        O  0.02352467  0.92615532  0.30386007    -0.74700
O791        O  0.09361944  0.88066412  0.37062627    -0.87500
O792        O  0.19551901  0.52731390  0.35770109    -0.80300
C793        C  0.17555242  0.94873448  0.42388360     0.93600
C794        C  0.04185399  0.83738174  0.42909182     0.93400
Mg795      Mg  0.13013776  0.99870574  0.30383717     1.58000
O796        O  0.15037316  0.50337894  0.25670692    -0.80200
O797        O  0.11082293  0.99884336  0.35156673    -0.74400
O798        O  0.14266224  0.92586840  0.42567091    -0.80300
O799        O  0.48849546  0.78997493  0.34862976    -0.82000
O800        O  0.03129149  0.90869111  0.23762870    -0.80300
C801        C  0.10940655  0.98202968  0.37494911     0.87900
O802        O  0.08001602  0.95317549  0.29242661    -0.87400
O803        O  0.14775691  0.96227747  0.31373952    -0.87500
O804        O  0.13893831  0.93241425  0.27241271    -0.74600
Mg805      Mg  0.09128193  0.91476824  0.40477455     1.58000
O806        O  0.18931690  0.96977448  0.40214125    -0.82000
H807        H  0.99090662  0.88463359  0.36466638    -0.05700
O808        O  0.05765039  0.87582498  0.28795971    -0.87200
H809        H  0.07584340  0.84666020  0.26812131    -0.05500
H810        H  0.05401951  0.97985348  0.29837997    -0.05700
C811        C  0.06582418  0.85237570  0.28820630     0.87800
C812        C  0.01660764  0.88665852  0.36713248     0.88400
C813        C  0.05277077  0.95433705  0.29797930     0.88500
H814        H  0.18454321  0.95246179  0.29643208    -0.05700
O815        O  0.14935864  0.90673262  0.35683560    -0.74700
Mg816      Mg  0.08318288  0.92019420  0.25777722     1.58000
H817        H  0.11855095  0.85324743  0.36307490    -0.05700
C818        C  0.47099665  0.78397188  0.32485276     0.93500
O819        O  0.48609086  0.86090033  0.25864115    -0.81900
C820        C  0.49897377  0.88403988  0.23831062     0.93500
O821        O  0.06754462  0.86799600  0.43560000    -0.81900
Mg822      Mg  0.16783845  0.96639747  0.35700458     1.58200
O823        O  0.48173964  0.80612267  0.30367474    -0.80300
O824        O  0.18382687  0.54555178  0.31543324    -0.81900
O825        O  0.37238633  0.88658537  0.32756560    -0.87500
C826        C  0.31163569  0.90911113  0.27138623     0.88500
Mg827      Mg  0.35008969  0.85723678  0.36837053     1.58100
O828        O  0.37637731  0.98151171  0.31282466    -0.87300
O829        O  0.41620228  0.93697914  0.31052806    -0.74600
C830        C  0.27782466  0.94173881  0.43612084     0.93500
O831        O  0.28637180  0.83817987  0.31657700    -0.74400
O832        O  0.27393158  0.91063509  0.43497834    -0.81900
Mg833      Mg  0.33810284  0.86178625  0.28890405     1.58000
C834        C  0.34028458  0.54760709  0.35239103     0.93500
O835        O  0.38252924  0.87738859  0.25564683    -0.80200
H836        H  0.42732493  0.01732132  0.32183096    -0.05500
C837        C  0.27523393  0.93366195  0.34756349     0.88400
O838        O  0.37569017  0.90924369  0.39644000    -0.74700
O839        O  0.33856136  0.91071816  0.28186525    -0.87500
O840        O  0.34843058  0.53878780  0.32788796    -0.80300
C841        C  0.37444718  0.01180597  0.24377612     0.93600
C842        C  0.40230582  0.90190777  0.23763934     0.93400
Mg843      Mg  0.34149487  0.98149310  0.38442880     1.58000
O844        O  0.29728370  0.96589802  0.41774448    -0.80200
O845        O  0.39318392  0.00534536  0.35666112    -0.74400
O846        O  0.37259569  0.98174108  0.24157997    -0.80300
O847        O  0.34089073  0.81175613  0.29564133    -0.82000
O848        O  0.30610259  0.85857385  0.43202648    -0.80300
C849        C  0.40011279  0.00214073  0.32982132     0.87900
O850        O  0.34145997  0.93226925  0.39212614    -0.87400
O851        O  0.30741589  0.95598882  0.34600883    -0.87500
O852        O  0.26364191  0.90618618  0.36383455    -0.74600
Mg853      Mg  0.39096159  0.95765235  0.27722289     1.58000
O854        O  0.35870848  0.51836282  0.26462221    -0.82000
H855        H  0.42304870  0.90570804  0.33985103    -0.05700
O856        O  0.30306259  0.86085711  0.36080655    -0.87200
H857        H  0.25204240  0.82579182  0.35131454    -0.05500
H858        H  0.38558265  0.95527293  0.41692766    -0.05700
C859        C  0.27934524  0.84084710  0.34351004     0.87800
C860        C  0.40452856  0.90922264  0.32646356     0.88400
C861        C  0.36817997  0.93335190  0.40250823     0.88500
H862        H  0.25659991  0.93725366  0.33440620    -0.05700
O863        O  0.30352017  0.93276483  0.27740092    -0.74700
Mg864      Mg  0.28889247  0.88504136  0.39684785     1.58000
H865        H  0.29443864  0.88694800  0.25709123    -0.05700
C866        C  0.33725984  0.79401782  0.31890714     0.93500
O867        O  0.32044503  0.82272561  0.40821299    -0.81900
C868        C  0.30360031  0.82820106  0.42881074     0.93500
O869        O  0.40689060  0.93316450  0.23944970    -0.81900
Mg870      Mg  0.32953648  0.98492452  0.30493050     1.58200
O871        O  0.33273872  0.80390197  0.34442810    -0.80300
O872        O  0.33624139  0.53040361  0.37613600    -0.81900
C873        C  0.47418035  0.88507140  0.21773198    -0.10000
C874        C  0.45654887  0.90195875  0.22861858    -0.03900
C875        C  0.42399163  0.89433087  0.21710424    -0.10000
C876        C  0.41023907  0.87182448  0.19180834     0.10900
C877        C  0.43012540  0.85728799  0.17874614    -0.01800
C878        C  0.46218785  0.86366166  0.19206989     0.10700
C879        C  0.48114974  0.84829108  0.17971554    -0.11800
C880        C  0.46930361  0.82769737  0.15391589    -0.11800
C881        C  0.43755440  0.82093140  0.14021008     0.10700
C882        C  0.41728775  0.83522612  0.15315724    -0.01800
C883        C  0.37736070  0.86335253  0.17935435    -0.12000
C884        C  0.36482394  0.84200103  0.15391235    -0.12000
C885        C  0.38458088  0.82808937  0.14033257     0.10900
C886        C  0.37291991  0.80769670  0.11398656    -0.10000
C887        C  0.39373570  0.79480314  0.10095578    -0.03900
C888        C  0.42577036  0.80087861  0.11360643    -0.10000
H889        H  0.00576703  0.85284888  0.18958583     0.08200
H890        H  0.48513981  0.81699657  0.14482043     0.08200
H891        H  0.36152013  0.87382489  0.18889412     0.08400
H892        H  0.33962493  0.83670958  0.14477344     0.08400
H893        H  0.46586118  0.91742005  0.24905507     0.04800
H894        H  0.38508826  0.78019795  0.08013797     0.04800
O895        O  0.21565642  0.53638871  0.00762145    -0.87500
C896        C  0.23312959  0.97009123  0.06073209     0.88500
Mg897      Mg  0.18897557  0.51641444  0.96594616     1.58100
O898        O  0.30863212  0.53600834  0.02372464    -0.87300
O899        O  0.26657192  0.57807600  0.02607095    -0.74600
C900        C  0.27202733  0.94517172  0.90033919     0.93500
O901        O  0.16554869  0.94912376  0.01544044    -0.74400
O902        O  0.24229098  0.94382952  0.90014375    -0.81900
Mg903      Mg  0.18882114  0.99973881  0.04436577     1.58000
C904        C  0.37873831  0.50828871  0.98430575     0.93500
O905        O  0.20505821  0.54440196  0.07782803    -0.80200
H906        H  0.34591502  0.58752001  0.01903890    -0.05500
C907        C  0.26242155  0.93796924  0.98591253     0.88400
O908        O  0.24299436  0.54402068  0.94071329    -0.74700
O909        O  0.23631482  0.99821793  0.05130076    -0.87500
O910        O  0.36559203  0.50858332  0.00950845    -0.80300
C911        C  0.33229070  0.52905611  0.09231027     0.93600
C912        C  0.22951550  0.56261788  0.09644520     0.93400
Mg913      Mg  0.31249414  0.50732625  0.95250704     1.58000
O914        O  0.29620353  0.96322755  0.91914744    -0.80200
O915        O  0.33591065  0.55733497  0.98181786    -0.74400
O916        O  0.30063583  0.52301553  0.09274609    -0.80300
O917        O  0.13883301  0.00182672  0.03679756    -0.82000
O918        O  0.19887931  0.98178774  0.90386732    -0.80300
C919        C  0.33098404  0.56134558  0.00892865     0.87900
O920        O  0.26460413  0.50851403  0.94545819    -0.87400
O921        O  0.28526163  0.96989970  0.98883092    -0.87500
O922        O  0.23529680  0.92795516  0.96950132    -0.74600
Mg923      Mg  0.28360037  0.54895367  0.05874809     1.58000
O924        O  0.34188426  0.51408000  0.07306784    -0.82000
H925        H  0.23724647  0.58792197  0.99688638    -0.05700
O926        O  0.19263414  0.96959480  0.97332028    -0.87200
H927        H  0.15603359  0.91799663  0.97884122    -0.05500
H928        H  0.29039330  0.55428386  0.92282300    -0.05700
C929        C  0.17066660  0.94445100  0.98850172     0.87800
C930        C  0.23933545  0.56816895  0.00976556     0.88400
C931        C  0.26713901  0.53623847  0.93573718     0.88500
H932        H  0.26513193  0.91818304  0.99817788    -0.05700
O933        O  0.25671805  0.96160574  0.05554805    -0.74700
Mg934      Mg  0.21762612  0.95734408  0.93774702     1.58000
H935        H  0.20965246  0.95219740  0.07348517    -0.05700
C936        C  0.12181867  0.99669419  0.01282775     0.93500
O937        O  0.15732807  0.98956933  0.92434398    -0.81900
C938        C  0.16698106  0.97502464  0.90477805     0.93500
O939        O  0.25944197  0.56429182  0.09595540    -0.81900
Mg940      Mg  0.31099318  0.98841063  0.03089873     1.58200
O941        O  0.13421083  0.99475187  0.98770613    -0.80300
O942        O  0.36262281  0.50511437  0.96012721    -0.81900
O943        O  0.20037350  0.69289587  0.98900978    -0.87500
C944        C  0.20647863  0.78803999  0.97579150     0.88500
Mg945      Mg  0.19935301  0.67303572  0.03278453     1.58100
O946        O  0.28357050  0.78231432  0.95866835    -0.87300
O947        O  0.22499598  0.70071411  0.94538180    -0.74600
C948        C  0.34040263  0.80043530  0.09790075     0.93500
O949        O  0.16860702  0.72969204  0.03131007    -0.74400
O950        O  0.31040016  0.77382627  0.10518487    -0.81900
Mg951      Mg  0.16231293  0.70952662  0.98262228     1.58000
C952        C  0.37920701  0.87103335  0.99067566     0.93500
O953        O  0.14838917  0.68933781  0.93481175    -0.80200
H954        H  0.31013808  0.76325432  0.93585327    -0.05500
C955        C  0.28337422  0.82437216  0.04143511     0.88400
O956        O  0.25881068  0.68991838  0.02866900    -0.74700
O957        O  0.20598824  0.76044696  0.96811159    -0.87500
O958        O  0.35527557  0.85901980  0.97090155    -0.80300
C959        C  0.27519134  0.84077208  0.90911098     0.93600
C960        C  0.15465675  0.70621332  0.91051800     0.93400
Mg961      Mg  0.33216810  0.79742131  0.02705047     1.58000
O962        O  0.34375331  0.81855625  0.07484958    -0.80200
O963        O  0.32636679  0.77686300  0.97857464    -0.74400
O964        O  0.24965018  0.80863302  0.90844257    -0.80300
O965        O  0.11864577  0.65326208  0.99494777    -0.82000
O966        O  0.24571627  0.69611148  0.09982868    -0.80300
C967        C  0.30669873  0.77378204  0.95664684     0.87900
O968        O  0.28847718  0.74621304  0.04130180    -0.87400
O969        O  0.29401702  0.81371503  0.02044418    -0.87500
O970        O  0.26966772  0.80530199  0.06439243    -0.74600
Mg971      Mg  0.23632404  0.75633253  0.93107674     1.58000
O972        O  0.29632240  0.85363717  0.93089332    -0.82000
H973        H  0.20801130  0.65564166  0.96963925    -0.05700
O974        O  0.21100288  0.72378786  0.05136137    -0.87200
H975        H  0.18466279  0.74315131  0.07408633    -0.05500
H976        H  0.31297001  0.71910691  0.03052890    -0.05700
C977        C  0.18809893  0.73259383  0.05330420     0.87800
C978        C  0.21076733  0.68177300  0.96823322     0.88400
C979        C  0.28801745  0.71863042  0.03362169     0.88500
H980        H  0.28566536  0.85031613  0.04022774    -0.05700
O981        O  0.23566084  0.81666904  0.98090878    -0.74700
Mg982      Mg  0.25862058  0.74951989  0.07871681     1.58000
H983        H  0.18153614  0.78758793  0.97887170    -0.05700
C984        C  0.11603965  0.63448570  0.01727149     0.93500
O985        O  0.19725454  0.65230185  0.07817192    -0.81900
C986        C  0.21959180  0.66415220  0.09913074     0.93500
O987        O  0.18553034  0.73188954  0.90396157    -0.81900
Mg988      Mg  0.29488618  0.83330649  0.97658101     1.58200
O989        O  0.13882611  0.64696239  0.03795960    -0.80300
O990        O  0.37636077  0.85318053  0.01374673    -0.81900
O991        O  0.01204772  0.80802143  0.01798405    -0.87500
C992        C  0.42007834  0.71229003  0.02627748     0.88500
Mg993      Mg  0.03614763  0.83394792  0.97642253     1.58100
O994        O  0.00229426  0.71692219  0.04287960    -0.87300
O995        O  0.02372824  0.79650215  0.06209508    -0.74600
C996        C  0.04443572  0.70911558  0.89928027     0.93500
O997        O  0.44648014  0.77478035  0.97361275    -0.74400
O998        O  0.04571038  0.73837492  0.89290022    -0.81900
Mg999      Mg  0.45673562  0.79085643  0.02321665     1.58000
C1000       C  0.01212361  0.63436064  0.00198257     0.93500
O1001       O  0.46218870  0.80841639  0.07204267    -0.80200
H1002       H  0.04909120  0.73720046  0.06387608    -0.05500
C1003       C  0.46451384  0.68634745  0.95627743     0.88400
O1004       O  0.07695958  0.81558529  0.97858622    -0.74700
O1005       O  0.44737163  0.73881257  0.03540914    -0.87500
O1006       O  0.49841973  0.64351984  0.02264784    -0.80300
C1007       C  0.43177093  0.65012863  0.08709385     0.93600
C1008       C  0.44780375  0.79034546  0.09538653     0.93400
Mg1009     Mg  0.03880637  0.71002047  0.97023521     1.58000
O1010       O  0.02685343  0.69116774  0.92171583    -0.80200
O1011       O  0.05171626  0.72705803  0.02003670    -0.74400
O1012       O  0.43826807  0.68191268  0.09233801    -0.80300
O1013       O  0.46809518  0.84681992  0.01289506    -0.82000
O1014       O  0.06046908  0.82090057  0.90229576    -0.80300
C1015       C  0.03471406  0.72736331  0.04326481     0.87900
O1016       O  0.04959270  0.76251280  0.95880133    -0.87400
O1017       O  0.48475287  0.69468143  0.97774156    -0.87500
O1018       O  0.47223931  0.70707384  0.93413611    -0.74600
Mg1019     Mg  0.47838148  0.73917618  0.07300810     1.58000
O1020       O  0.44108666  0.64186002  0.06297933    -0.82000
H1021       H  0.05489714  0.84354583  0.04082051    -0.05700
O1022       O  0.49693199  0.78726122  0.95163139    -0.87200
H1023       H  0.45081503  0.76678633  0.92969138    -0.05500
H1024       H  0.10060453  0.78610265  0.97140081    -0.05700
C1025       C  0.46448017  0.77623216  0.95063989     0.87800
C1026       C  0.03127546  0.81728693  0.04011368     0.88400
C1027       C  0.07683951  0.78798040  0.96918214     0.88500
H1028       H  0.43992904  0.66084592  0.95618939    -0.05700
O1029       O  0.42043017  0.68445084  0.01821893    -0.74700
Mg1030     Mg  0.01898128  0.76362970  0.92162993     1.58000
H1031       H  0.39573224  0.71315607  0.02435849    -0.05700
C1032       C  0.48688155  0.86922365  0.99307127     0.93500
O1033       O  0.06114042  0.86121850  0.93371669    -0.81900
C1034       C  0.06905364  0.85310110  0.90882665     0.93500
O1035       O  0.44947868  0.76246607  0.10135533    -0.81900
Mg1036     Mg  0.46348878  0.66882129  0.01981258     1.58200
O1037       O  0.00505099  0.86316965  0.97424954    -0.80300
O1038       O  0.02703665  0.65408287  0.97974704    -0.81900
O1039       O  0.18036208  0.64189199  0.68014138    -0.87500
C1040       C  0.09192303  0.54986472  0.70063405     0.88500
Mg1041     Mg  0.19119037  0.66072323  0.63557244     1.58100
O1042       O  0.17376845  0.55088987  0.70733802    -0.87300
O1043       O  0.20348594  0.63337229  0.71995725    -0.74600
C1044       C  0.19683819  0.53573696  0.56576638     0.93500
O1045       O  0.10413056  0.60528703  0.64775804    -0.74400
O1046       O  0.19190654  0.56102128  0.55854049    -0.81900
Mg1047     Mg  0.12803350  0.62686204  0.69458386     1.58000
C1048       C  0.17608325  0.96372514  0.66927648     0.93500
O1049       O  0.14924328  0.64824383  0.74024258    -0.80200
H1050       H  0.22154172  0.56833279  0.72581620    -0.05500
C1051       C  0.12039300  0.50927520  0.62793887     0.88400
O1052       O  0.23416184  0.64449345  0.63229881    -0.74700
O1053       O  0.12118568  0.57630086  0.70616847    -0.87500
O1054       O  0.16071101  0.97173829  0.68947045    -0.80300
C1055       C  0.10773597  0.99518311  0.75988462     0.93600
C1056       C  0.13421936  0.63026029  0.76329419     0.93400
Mg1057     Mg  0.19804456  0.53691618  0.63483051     1.58000
O1058       O  0.18080390  0.51653526  0.58807157    -0.80200
O1059       O  0.21948208  0.55667377  0.68188971    -0.74400
O1060       O  0.11916924  0.52833677  0.76203817    -0.80300
O1061       O  0.13802119  0.68168599  0.68421143    -0.82000
O1062       O  0.20787369  0.63620107  0.56880551    -0.80300
C1063       C  0.20535908  0.55875008  0.70605977     0.87900
O1064       O  0.20353196  0.58737810  0.62346224    -0.87400
O1065       O  0.14422922  0.52030912  0.64677379    -0.87500
O1066       O  0.12294532  0.52808155  0.60556525    -0.74600
Mg1067     Mg  0.15920272  0.57913642  0.73857405     1.58000
O1068       O  0.11282399  0.98103157  0.73701578    -0.82000
H1069       H  0.22973495  0.67726948  0.69379763    -0.05700
O1070       O  0.14847493  0.60947427  0.62101090    -0.87200
H1071       H  0.09940893  0.59006005  0.60439284    -0.05500
H1072       H  0.25681894  0.61377788  0.62644997    -0.05700
C1073       C  0.11675607  0.60109812  0.62338496     0.87800
C1074       C  0.20549572  0.65206789  0.69763592     0.88400
C1075       C  0.23252578  0.61491250  0.62725417     0.88500
H1076       H  0.09683513  0.48322691  0.63064018    -0.05700
O1077       O  0.08929239  0.52050227  0.69301949    -0.74700
Mg1078     Mg  0.16686589  0.58378454  0.58967338     1.58000
H1079       H  0.06826899  0.55215732  0.70127413    -0.05700
C1080       C  0.14807457  0.69850305  0.65998079     0.93500
O1081       O  0.20202921  0.67980294  0.58892149    -0.81900
C1082       C  0.21404890  0.66799339  0.56898285     0.93500
O1083       O  0.13893220  0.60497889  0.77082198    -0.81900
Mg1084     Mg  0.12937843  0.50109876  0.69089714     1.58200
O1085       O  0.15600293  0.68602620  0.63753928    -0.80300
O1086       O  0.18973660  0.98267116  0.64629144    -0.81900
C1087       C  0.12421398  0.69764443  0.89093816    -0.10000
C1088       C  0.09894072  0.70606508  0.90143475    -0.03900
C1089       C  0.06889018  0.69897731  0.88480556    -0.10000
C1090       C  0.06264430  0.68065268  0.85727071     0.10900
C1091       C  0.08848916  0.67248699  0.84616157    -0.01800
C1092       C  0.11984628  0.68200015  0.86271975     0.10700
C1093       C  0.14579211  0.67516688  0.85088998    -0.11800
C1094       C  0.14150324  0.65980851  0.82303248    -0.11800
C1095       C  0.11043701  0.64937212  0.80657079     0.10700
C1096       C  0.08312069  0.65474982  0.81843533    -0.01800
C1097       C  0.03138191  0.66973634  0.84079077    -0.12000
C1098       C  0.02548176  0.65100512  0.81393215    -0.12000
C1099       C  0.05101149  0.64324096  0.80228514     0.10900
C1100       C  0.04637272  0.62561001  0.77445563    -0.10000
C1101       C  0.07447362  0.62222431  0.76281745    -0.03900
C1102       C  0.10633465  0.63434965  0.77817308    -0.10000
H1103       H  0.16992261  0.68205503  0.86290801     0.08200
H1104       H  0.16269231  0.65587465  0.81461863     0.08200
H1105       H  0.01112005  0.67534711  0.84874924     0.08400
H1106       H  0.50095072  0.64304860  0.80213619     0.08400
H1107       H  0.10293208  0.71874942  0.92304677     0.04800
H1108       H  0.07172452  0.61036150  0.74097647     0.04800
C1109       C  0.08997995  0.88351029  0.88828688    -0.10000
C1110       C  0.12175624  0.91169631  0.89995881    -0.03900
C1111       C  0.13940799  0.94554729  0.88695772    -0.10000
C1112       C  0.12664444  0.95143051  0.86042931     0.10900
C1113       C  0.09403266  0.92389171  0.84848129    -0.01800
C1114       C  0.07546024  0.88972707  0.86225906     0.10700
C1115       C  0.04249831  0.86362295  0.85018474    -0.11800
C1116       C  0.02798317  0.87103891  0.82536609    -0.11800
C1117       C  0.04575825  0.90490386  0.81197735     0.10700
C1118       C  0.07935503  0.93127805  0.82340464    -0.01800
C1119       C  0.14547761  0.98446427  0.84589269    -0.12000
C1120       C  0.13238891  0.99062908  0.82001943    -0.12000
C1121       C  0.09911801  0.96471067  0.80888582     0.10900
C1122       C  0.08515518  0.97111234  0.78323238    -0.10000
C1123       C  0.05047383  0.94736975  0.77477959    -0.03900
C1124       C  0.03136519  0.91372185  0.78742515    -0.10000
H1125       H  0.02757660  0.83735549  0.85999732     0.08200
H1126       H  0.50243215  0.85033840  0.81699941     0.08200
H1127       H  0.17078637  0.00564254  0.85423513     0.08400
H1128       H  0.14790491  0.51633499  0.80936104     0.08400
H1129       H  0.13149967  0.90801491  0.92096097     0.04800
H1130       H  0.04048117  0.95295882  0.75468737     0.04800
O1131       O  0.35894324  0.53900871  0.68521444    -0.87500
C1132       C  0.45339829  0.54196698  0.69254569     0.88500
Mg1133     Mg  0.33333119  0.53660566  0.64338601     1.58100
O1134       O  0.45007754  0.62010561  0.71058942    -0.87300
O1135       O  0.37031646  0.56205711  0.72970789    -0.74600
C1136       C  0.45816769  0.67242072  0.56731258     0.93500
O1137       O  0.39198372  0.50693724  0.64028194    -0.74400
O1138       O  0.42899774  0.64374874  0.56096764    -0.81900
Mg1139     Mg  0.37556208  0.50059350  0.68996148     1.58000
C1140       C  0.03259057  0.71298222  0.67112236     0.93500
O1141       O  0.35777864  0.98767981  0.73880678    -0.80200
H1142       H  0.42972789  0.64618668  0.73237075    -0.05500
C1143       C  0.48082338  0.61480806  0.62282821     0.88400
O1144       O  0.35106340  0.59598655  0.64619728    -0.74700
O1145       O  0.42746522  0.54306986  0.70248951    -0.87500
O1146       O  0.02397484  0.68934859  0.69079131    -0.80300
C1147       C  0.01653912  0.61638346  0.75373897     0.93600
C1148       C  0.37582415  0.49180170  0.76213007     0.93400
Mg1149     Mg  0.45672704  0.66452938  0.63892146     1.58000
O1150       O  0.47589927  0.67400940  0.59014572    -0.80200
O1151       O  0.43962860  0.65916418  0.68869533    -0.74400
O1152       O  0.48450591  0.59173040  0.75951916    -0.80300
O1153       O  0.31995227  0.95605931  0.67937620    -0.82000
O1154       O  0.34657605  0.57390585  0.56985113    -0.80300
C1155       C  0.43958554  0.64190799  0.71155080     0.87900
O1156       O  0.40430367  0.62261504  0.62667111    -0.87400
O1157       O  0.47192238  0.62557124  0.64487558    -0.87500
O1158       O  0.46036866  0.60200443  0.60050453    -0.74600
Mg1159     Mg  0.42744800  0.57408377  0.74037594     1.58000
O1160       O  0.02494123  0.63297613  0.72930416    -0.82000
H1161       H  0.32359884  0.54636279  0.70829945    -0.05700
O1162       O  0.38041283  0.54527243  0.61875582    -0.87200
H1163       H  0.40092961  0.51966907  0.59657093    -0.05500
H1164       H  0.38030658  0.64951582  0.63954762    -0.05700
C1165       C  0.39123123  0.52379849  0.61753115     0.87800
C1166       C  0.34969807  0.54896223  0.70754300     0.88400
C1167       C  0.37864639  0.62391484  0.63708217     0.88500
H1168       H  0.50655718  0.61656894  0.62239954    -0.05700
O1169       O  0.48104899  0.57003504  0.68378101    -0.74700
Mg1170     Mg  0.40375725  0.59115060  0.58900342     1.58000
H1171       H  0.45197025  0.51646148  0.69023391    -0.05700
C1172       C  0.29850736  0.95211669  0.65888149     0.93500
O1173       O  0.30616832  0.53319984  0.60055806    -0.81900
C1174       C  0.31451137  0.54935832  0.57589036     0.93500
O1175       O  0.40370759  0.52175877  0.76822289    -0.81900
Mg1176     Mg  0.49765501  0.62907609  0.68664456     1.58200
O1177       O  0.30548545  0.97614912  0.63990622    -0.80300
O1178       O  0.01252811  0.70877678  0.64943655    -0.81900
O1179       O  0.47476978  0.84453011  0.65535705    -0.87500
C1180       C  0.38087618  0.75403086  0.64067577     0.88500
Mg1181     Mg  0.49496755  0.86151536  0.69975482     1.58100
O1182       O  0.38468952  0.83633185  0.62575771    -0.87300
O1183       O  0.46648740  0.86161974  0.61233214    -0.74600
C1184       C  0.36964619  0.87553531  0.76623275     0.93500
O1185       O  0.43851388  0.77390144  0.69485056    -0.74400
O1186       O  0.39578726  0.87183796  0.77360351    -0.81900
Mg1187     Mg  0.45905242  0.79019902  0.64631520     1.58000
C1188       C  0.29597450  0.84105587  0.66083504     0.93500
O1189       O  0.47973399  0.80046659  0.59857473    -0.80200
H1190       H  0.40356861  0.88254238  0.60411547    -0.05500
C1191       C  0.34360520  0.79329250  0.70907158     0.88400
O1192       O  0.47906061  0.90484464  0.69855590    -0.74700
O1193       O  0.40786162  0.78175048  0.63280633    -0.87500
O1194       O  0.30626156  0.82730552  0.64099777    -0.80300
C1195       C  0.32618563  0.76862944  0.57589822     0.93600
C1196       C  0.46182261  0.78677879  0.57510060     0.93400
Mg1197     Mg  0.37122602  0.86937041  0.69577437     1.58000
O1198       O  0.35094010  0.85953764  0.74360271    -0.80200
O1199       O  0.39110267  0.88460419  0.64737670    -0.74400
O1200       O  0.35869334  0.77710995  0.57358297    -0.80300
O1201       O  0.01540248  0.80349279  0.65744690    -0.82000
O1202       O  0.47260301  0.88316278  0.76795736    -0.80300
C1203       C  0.39337104  0.86818193  0.62469979     0.87900
O1204       O  0.42241614  0.87688263  0.70954622    -0.87400
O1205       O  0.35465839  0.81460755  0.68826836    -0.87500
O1206       O  0.36259620  0.79859606  0.73193417    -0.74600
Mg1207     Mg  0.41106917  0.81641058  0.59686051     1.58000
O1208       O  0.31371952  0.77530582  0.59904749    -0.82000
H1209       H  0.51113396  0.89082802  0.63707378    -0.05700
O1210       O  0.44397205  0.82127281  0.71748800    -0.87200
H1211       H  0.42418762  0.77417950  0.73793220    -0.05500
H1212       H  0.44988727  0.92945848  0.70181751    -0.05700
C1213       C  0.43507719  0.78933391  0.71778179     0.87800
C1214       C  0.48538410  0.86670347  0.63521045     0.88400
C1215       C  0.45020507  0.90478239  0.70340321     0.88500
H1216       H  0.31736935  0.76970632  0.70779049    -0.05700
O1217       O  0.35229914  0.75371627  0.64723002    -0.74700
Mg1218     Mg  0.41882452  0.84321852  0.74626560     1.58000
H1219       H  0.38195426  0.72981341  0.64289979    -0.05700
C1220       C  0.03391116  0.81853334  0.68028561     0.93500
O1221       O  0.01538543  0.87733935  0.74593649    -0.81900
C1222       C  0.00404667  0.88796487  0.76736197     0.93500
O1223       O  0.43550199  0.79048399  0.56858187    -0.81900
Mg1224     Mg  0.33451502  0.79513415  0.64454113     1.58200
O1225       O  0.02100381  0.82709597  0.70202318    -0.80300
O1226       O  0.31523937  0.85749853  0.68313240    -0.81900
C1227       C  0.27804021  0.86591402  0.88636978    -0.10000
C1228       C  0.26484331  0.88760116  0.89517220    -0.03900
C1229       C  0.27670355  0.92042162  0.88195283    -0.10000
C1230       C  0.29949976  0.93086467  0.85705598     0.10900
C1231       C  0.31052442  0.90739697  0.84590029    -0.01800
C1232       C  0.30016555  0.87481723  0.86088934     0.10700
C1233       C  0.31224416  0.85237331  0.85010841    -0.11800
C1234       C  0.33276631  0.86096770  0.82421032    -0.11800
C1235       C  0.34305411  0.89298998  0.80898175     0.10700
C1236       C  0.33290546  0.91710739  0.82048927    -0.01800
C1237       C  0.31158299  0.96398801  0.84326608    -0.12000
C1238       C  0.33361157  0.97363171  0.81825275    -0.13800
C1239       C  0.34434285  0.95050289  0.80633150     0.10900
C1240       C  0.36549378  0.95936380  0.78027927    -0.10000
C1241       C  0.37357159  0.93421029  0.76838362    -0.03900
C1242       C  0.36259264  0.90128186  0.78221391    -0.10000
H1243       H  0.30490423  0.82749457  0.86113852     0.08200
H1244       H  0.34057624  0.84231363  0.81620781     0.08200
H1245       H  0.30355266  0.98239851  0.85150388     0.08400
H1246       H  0.34189943  0.49921602  0.80812942     0.08400
H1247       H  0.24884654  0.88106445  0.91535439     0.04800
H1248       H  0.38817941  0.94009944  0.74756658     0.04800
C1249       C  0.03788017  0.80635973  0.44505081    -0.10000
C1250       C  0.05094198  0.78657110  0.43091156    -0.03900
C1251       C  0.04713804  0.75555395  0.44341423    -0.10000
C1252       C  0.02807948  0.74291946  0.47072934     0.10900
C1253       C  0.01603016  0.76386164  0.48580949    -0.01800
C1254       C  0.02203063  0.79631720  0.47322752     0.10700
C1255       C  0.01156035  0.81765457  0.48880693    -0.11800
C1256       C  0.49523562  0.80732090  0.51637244    -0.11800
C1257       C  0.48743391  0.77456634  0.52873114     0.10700
C1258       C  0.49731159  0.75216926  0.51319877    -0.01800
C1259       C  0.02029519  0.71011079  0.48326138    -0.12000
C1260       C  0.50048290  0.69781492  0.50972441    -0.12000
C1261       C  0.48859938  0.71833771  0.52499800     0.10900
C1262       C  0.46877363  0.70667304  0.55196548    -0.10000
C1263       C  0.46090446  0.73010759  0.56743323    -0.03900
C1264       C  0.47032470  0.76385064  0.55644243    -0.10000
H1265       H  0.01619403  0.84274755  0.47990786     0.08200
H1266       H  0.48818340  0.82501137  0.52767237     0.08200
H1267       H  0.02910213  0.69352839  0.47242979     0.08400
H1268       H  0.49474376  0.67221443  0.51831766     0.08400
H1269       H  0.06365278  0.79510647  0.40930566     0.04800
H1270       H  0.44717898  0.72192673  0.58866526     0.04800
C1271       C  0.27580823  0.79681724  0.44531430    -0.10000
C1272       C  0.24281142  0.77605028  0.43100825    -0.03900
C1273       C  0.21562959  0.74358174  0.44272513    -0.10000
C1274       C  0.22165269  0.73139293  0.46977683     0.10900
C1275       C  0.25502801  0.75197044  0.48449738    -0.01800
C1276       C  0.28198298  0.78500379  0.47251115     0.10700
C1277       C  0.31432461  0.80507567  0.48793151    -0.11800
C1278       C  0.32031323  0.79288209  0.51465318    -0.11800
C1279       C  0.29458328  0.75975059  0.52634178     0.10700
C1280       C  0.26165724  0.73914218  0.51109556    -0.01800
C1281       C  0.19534686  0.69911680  0.48239906    -0.12000
C1282       C  0.20163657  0.68699246  0.50890054    -0.12000
C1283       C  0.23468605  0.70640069  0.52325459     0.10900
C1284       C  0.24160837  0.69419627  0.54975165    -0.10000
C1285       C  0.27466249  0.71309997  0.56317489    -0.03900
C1286       C  0.30023034  0.74653534  0.55316156    -0.10000
H1287       H  0.33517120  0.83050139  0.47947595     0.08200
H1288       H  0.34551599  0.80921800  0.52583043     0.08200
H1289       H  0.16963347  0.68307025  0.47189227     0.08400
H1290       H  0.18066752  0.66194321  0.51786153     0.08400
H1291       H  0.23868807  0.78473589  0.40965785     0.04800
H1292       H  0.27878176  0.70374938  0.58427355     0.04800
C1293       C  0.19929539  0.95014354  0.44693351    -0.10000
C1294       C  0.22117149  0.93681490  0.43926227    -0.03900
C1295       C  0.25310022  0.94797007  0.45394384    -0.10000
C1296       C  0.26237885  0.97170070  0.47872887     0.10900
C1297       C  0.23769633  0.98199430  0.48867962    -0.01800
C1298       C  0.20580774  0.97083977  0.47265969     0.10700
C1299       C  0.18148194  0.98107030  0.48231144    -0.11800
C1300       C  0.18764015  0.50088024  0.50812186    -0.11800
C1301       C  0.21917157  0.51261563  0.52426261     0.10700
C1302       C  0.24525114  0.50447276  0.51390185    -0.01800
C1303       C  0.29498480  0.98536412  0.49382843    -0.12000
C1304       C  0.30274893  0.50803115  0.51863527    -0.12000
C1305       C  0.27816012  0.51781124  0.52918474     0.10900
C1306       C  0.28458961  0.53945562  0.55504353    -0.10000
C1307       C  0.25750018  0.54532868  0.56554310    -0.03900
C1308       C  0.22490876  0.53169399  0.55088333    -0.10000
H1309       H  0.15691317  0.97283207  0.47045963     0.08200
H1310       H  0.16757158  0.50719519  0.51519641     0.08200
H1311       H  0.31444005  0.97820573  0.48671868     0.08400
H1312       H  0.32802569  0.51757728  0.52971026     0.08400
H1313       H  0.21543783  0.92109672  0.41898283     0.04800
H1314       H  0.26131740  0.55967993  0.58630055     0.04800
C1315       C  0.99831124  0.96875703  0.99788331     0.03100
C1316       C  0.03055148  0.49997177  0.00567346     0.03100
C1317       C  0.03204345  0.53328265  0.00747999     0.03100
C1318       C  0.00143526  0.53518403  0.00095509     0.03100
C1319       C  0.46924163  0.50400145  0.99326847     0.03100
C1320       C  0.46744848  0.97058696  0.99247654     0.03100
C1321       C  0.33165105  0.63554155  0.34042754     0.03100
C1322       C  0.36612164  0.66496343  0.33589100     0.03100
C1323       C  0.37056817  0.69821214  0.32745018     0.03100
C1324       C  0.34041620  0.70215077  0.32368252     0.03100
C1325       C  0.30584940  0.67246784  0.32722178     0.03100
C1326       C  0.30144214  0.63928145  0.33600158     0.03100
C1327       C  0.16827168  0.86621730  0.66957455     0.03100
C1328       C  0.13465466  0.83467926  0.67256850     0.03100
C1329       C  0.13219638  0.80124072  0.66932262     0.03100
C1330       C  0.16298209  0.79891057  0.66368922     0.03100
C1331       C  0.19678443  0.83041275  0.66181969     0.03100
C1332       C  0.19910456  0.86389242  0.66399708     0.03100
C1333       C  0.07091976  0.82790268  0.68065029    -0.12500
C1334       C  0.10164755  0.83505729  0.67796451    -0.14000
C1335       C  0.26032392  0.83545362  0.65881739    -0.12500
C1336       C  0.22998445  0.82981253  0.65905946    -0.14000
C1337       C  0.26386117  0.92074732  0.65856151    -0.12500
C1338       C  0.23384778  0.89583937  0.66064592    -0.14000
C1339       C  0.06724998  0.74423775  0.67240157    -0.12500
C1340       C  0.09729438  0.76924193  0.67144822    -0.14000
C1341       C  0.15907460  0.76396752  0.66008121    -0.12500
C1342       C  0.15293970  0.73364374  0.65862169    -0.14000
C1343       C  0.17532696  0.93048234  0.67157791    -0.12500
C1344       C  0.17157073  0.90102288  0.67157105    -0.14000
C1345       C  0.00375764  0.56978783  0.00213055    -0.12500
C1346       C  0.00855062  0.59968632  0.00293678    -0.14000
C1347       C  0.49594119  0.93413333  0.99550028    -0.12500
C1348       C  0.49053249  0.90402160  0.99344094    -0.14000
C1349       C  0.06469201  0.56656480  0.01475191    -0.12500
C1350       C  0.08810637  0.59742373  0.01795080    -0.14000
C1351       C  0.43396693  0.93718140  0.98809053    -0.12500
C1352       C  0.40914240  0.90678126  0.98767951    -0.14000
C1353       C  0.41193329  0.50895005  0.98388425    -0.12500
C1354       C  0.43808276  0.50652259  0.98699575    -0.14000
C1355       C  0.08839815  0.99554942  0.01341311    -0.12500
C1356       C  0.06196541  0.99761988  0.01102603    -0.14000
C1357       C  0.32873483  0.60169154  0.34834671    -0.12500
C1358       C  0.33364145  0.57695869  0.35231546    -0.14000
C1359       C  0.34374450  0.73668704  0.31834770    -0.12500
C1360       C  0.34064480  0.76277414  0.31694828    -0.14000
C1361       C  0.23606098  0.58384838  0.34053250    -0.12500
C1362       C  0.26585465  0.60918998  0.33969418    -0.14000
C1363       C  0.43660583  0.75255396  0.32272801    -0.12500
C1364       C  0.40627709  0.72815498  0.32365434    -0.14000
C1365       C  0.25028973  0.68175936  0.31859798    -0.12500
C1366       C  0.27500813  0.67673760  0.32216453    -0.14000
C1367       C  0.42185796  0.65565569  0.34249142    -0.12500
C1368       C  0.39695992  0.66051750  0.33989992    -0.14000
O1369       O  0.54773352  0.19575518  0.33622330    -0.87500
C1370       C  0.57896766  0.14867076  0.39916854     0.88500
Mg1371     Mg  0.51944910  0.17001800  0.29560590     1.58100
O1372       O  0.64635773  0.21425791  0.35335297    -0.87300
O1373       O  0.59320043  0.24501001  0.35265873    -0.74600
C1374       C  0.61263741  0.09985850  0.23757965     0.93500
O1375       O  0.50766713  0.11255175  0.35200231    -0.74400
O1376       O  0.58018132  0.09263743  0.23734437    -0.81900
Mg1377     Mg  0.52528520  0.16554942  0.37674456     1.58000
C1378       C  0.71848205  0.18428448  0.31727927     0.93500
O1379       O  0.53555384  0.21229288  0.40674538    -0.80200
H1380       H  0.67481143  0.26397661  0.33760590    -0.05500
C1381       C  0.60527761  0.10965477  0.32500151     0.88400
O1382       O  0.57085622  0.19709594  0.26768924    -0.74700
O1383       O  0.57737331  0.17333211  0.38731692    -0.87500
O1384       O  0.70885124  0.19403822  0.34046510    -0.80300
C1385       C  0.68418941  0.22169312  0.42338119     0.93600
C1386       C  0.55862944  0.23529159  0.42430606     0.93400
Mg1387     Mg  0.64701201  0.17131681  0.28338086     1.58000
O1388       O  0.63572623  0.12331508  0.25483463    -0.80200
O1389       O  0.66479965  0.22521933  0.30718453    -0.74400
O1390       O  0.65718913  0.22608585  0.42447484    -0.80300
O1391       O  0.97217275  0.16144608  0.36631902    -0.82000
O1392       O  0.51597292  0.11443658  0.23464983    -0.80300
C1393       C  0.66259821  0.23566874  0.33317130     0.87900
O1394       O  0.59545625  0.16436426  0.27257320    -0.87400
O1395       O  0.62483409  0.14244813  0.32427882    -0.87500
O1396       O  0.57788121  0.09359156  0.30858997    -0.74600
Mg1397     Mg  0.62064569  0.22898740  0.38775884     1.58000
O1398       O  0.68737257  0.20249291  0.40354998    -0.82000
H1399       H  0.55876091  0.24373942  0.32183643    -0.05700
O1400       O  0.52540767  0.12465505  0.30571840    -0.87200
H1401       H  0.49655285  0.07458996  0.32059217    -0.05500
H1402       H  0.61614824  0.20700139  0.24608770    -0.05700
C1403       C  0.50909684  0.10279656  0.32560547     0.87800
C1404       C  0.56591390  0.22862868  0.33629539     0.88400
C1405       C  0.59497435  0.18985627  0.26120793     0.88500
H1406       H  0.61135308  0.09431938  0.34016573    -0.05700
O1407       O  0.60395722  0.14257410  0.39299571    -0.74700
Mg1408     Mg  0.55118840  0.10931679  0.27216437     1.58000
H1409       H  0.55825686  0.13145843  0.41460418    -0.05700
C1410       C  0.95414853  0.15410138  0.34262979     0.93500
O1411       O  0.98782526  0.14070760  0.25481957    -0.81900
C1412       C  0.49005442  0.12070155  0.23521261     0.93500
O1413       O  0.59130419  0.24331927  0.42373977    -0.81900
Mg1414     Mg  0.65461829  0.17054206  0.36397758     1.58200
O1415       O  0.96504399  0.14841696  0.31810571    -0.80300
O1416       O  0.69964914  0.17434245  0.29398364    -0.81900
C1417       C  0.62458062  0.07953567  0.21890722    -0.10000
C1418       C  0.61901649  0.04741837  0.23065205    -0.03900
C1419       C  0.63511885  0.02940337  0.21815844    -0.10000
C1420       C  0.65622421  0.04253243  0.19250157     0.10900
C1421       C  0.66319046  0.07557513  0.18062070    -0.01800
C1422       C  0.64747441  0.09433188  0.19375729     0.10700
C1423       C  0.65530428  0.12724547  0.18139995    -0.11800
C1424       C  0.67823538  0.14147783  0.15681934    -0.11800
C1425       C  0.69446615  0.12350535  0.14402963     0.10700
C1426       C  0.68658542  0.09013797  0.15593471    -0.01800
C1427       C  0.67084204  0.02361880  0.17870711    -0.12000
C1428       C  0.69234247  0.03710974  0.15367094    -0.12000
C1429       C  0.70093317  0.07050520  0.14229788     0.10900
C1430       C  0.72344214  0.08474963  0.11740847    -0.10000
C1431       C  0.73356079  0.11870596  0.10760962    -0.03900
C1432       C  0.71818537  0.13747016  0.11943841    -0.10000
H1433       H  0.64364109  0.14215057  0.19064190     0.08200
H1434       H  0.68363343  0.16691925  0.14810101     0.08200
H1435       H  0.66558108  0.49808650  0.18707854     0.08400
H1436       H  0.70301290  0.02164237  0.14371309     0.08400
H1437       H  0.60334743  0.03716547  0.25084471     0.04800
H1438       H  0.74983553  0.12853215  0.08762319     0.04800
C1439       C  0.89868522  0.04114619  0.22390472    -0.10000
C1440       C  0.93250402  0.06577026  0.23476246    -0.03900
C1441       C  0.95660047  0.09642730  0.21885352    -0.10000
C1442       C  0.94551391  0.10344686  0.19134192     0.10900
C1443       C  0.91181950  0.07744664  0.17943196    -0.01800
C1444       C  0.88890279  0.04577093  0.19548821     0.10700
C1445       C  0.85671633  0.01949794  0.18285380    -0.11800
C1446       C  0.84738554  0.02364463  0.15450397    -0.11800
C1447       C  0.86897457  0.05503496  0.13853595     0.10700
C1448       C  0.90076405  0.08292581  0.15141474    -0.01800
C1449       C  0.96653077  0.13522405  0.17544216    -0.12000
C1450       C  0.95475958  0.14136177  0.14834350    -0.12000
C1451       C  0.92201318  0.11549455  0.13582189     0.10900
C1452       C  0.91021606  0.12013297  0.10765133    -0.10000
C1453       C  0.87959304  0.09148577  0.09512925    -0.03900
C1454       C  0.85985771  0.05892379  0.10966900    -0.10000
H1455       H  0.83888531  0.49504721  0.19450821     0.08200
H1456       H  0.82274532  0.00224623  0.14535079     0.08200
H1457       H  0.49212203  0.15559370  0.18400245     0.08400
H1458       H  0.97178937  0.16626899  0.13697682     0.08400
H1459       H  0.93992854  0.06134761  0.25658158     0.04800
H1460       H  0.87190147  0.09396478  0.07281818     0.04800
O1461       O  0.52667120  0.37276653  0.34828862    -0.87500
C1462       C  0.62030361  0.37899115  0.36387056     0.88500
Mg1463     Mg  0.50691650  0.36675194  0.30441568     1.58100
O1464       O  0.61785538  0.45878580  0.37469623    -0.87300
O1465       O  0.53608270  0.40364703  0.38915659    -0.74600
C1466       C  0.63104229  0.49843788  0.23425103     0.93500
O1467       O  0.56289045  0.33499269  0.31169091    -0.74400
O1468       O  0.60568368  0.46765747  0.22761369    -0.81900
Mg1469     Mg  0.54305609  0.33583737  0.35944743     1.58000
C1470       C  0.70296325  0.05100147  0.33815551     0.93500
O1471       O  0.52282838  0.33263671  0.40645733    -0.80200
H1472       H  0.59991928  0.48766486  0.39537656    -0.05500
C1473       C  0.65838793  0.44948951  0.29439013     0.88400
O1474       O  0.52352462  0.42615526  0.30386006    -0.74700
O1475       O  0.59361955  0.38066410  0.37062624    -0.87500
O1476       O  0.69551894  0.02731386  0.35770109    -0.80300
C1477       C  0.67555238  0.44873448  0.42388361     0.93600
C1478       C  0.54185407  0.33738180  0.42909182     0.93400
Mg1479     Mg  0.63013778  0.49870580  0.30383716     1.58000
O1480       O  0.65037329  0.00337904  0.25670692    -0.80200
O1481       O  0.61082288  0.49884330  0.35156674    -0.74400
O1482       O  0.64266220  0.42586839  0.42567091    -0.80300
O1483       O  0.98849546  0.28997500  0.34862975    -0.82000
O1484       O  0.53129161  0.40869105  0.23762870    -0.80300
C1485       C  0.60940652  0.48202960  0.37494912     0.87900
O1486       O  0.58001600  0.45317549  0.29242660    -0.87400
O1487       O  0.64775684  0.46227744  0.31373951    -0.87500
O1488       O  0.63893830  0.43241421  0.27241272    -0.74600
Mg1489     Mg  0.59128192  0.41476822  0.40477453     1.58000
O1490       O  0.68931686  0.46977448  0.40214125    -0.82000
H1491       H  0.49090660  0.38463352  0.36466639    -0.05700
O1492       O  0.55765052  0.37582505  0.28795976    -0.87200
H1493       H  0.57584326  0.34666009  0.26812124    -0.05500
H1494       H  0.55401943  0.47985341  0.29837996    -0.05700
C1495       C  0.56582419  0.35237569  0.28820628     0.87800
C1496       C  0.51660755  0.38665845  0.36713248     0.88400
C1497       C  0.55277071  0.45433700  0.29797929     0.88500
H1498       H  0.68454318  0.45246181  0.29643208    -0.05700
O1499       O  0.64935876  0.40673268  0.35683562    -0.74700
Mg1500     Mg  0.58318298  0.42019417  0.25777722     1.58000
H1501       H  0.61855118  0.35324750  0.36307482    -0.05700
C1502       C  0.97099666  0.28397184  0.32485273     0.93500
O1503       O  0.98609081  0.36090029  0.25864113    -0.81900
C1504       C  0.99897376  0.38403986  0.23831061     0.93500
O1505       O  0.56754462  0.36799610  0.43560003    -0.81900
Mg1506     Mg  0.66783845  0.46639748  0.35700458     1.58200
O1507       O  0.98173961  0.30612261  0.30367471    -0.80300
O1508       O  0.68382677  0.04555171  0.31543325    -0.81900
O1509       O  0.87238635  0.38658536  0.32756562    -0.87500
C1510       C  0.81163572  0.40911111  0.27138624     0.88500
Mg1511     Mg  0.85008973  0.35723674  0.36837054     1.58100
O1512       O  0.87637734  0.48151170  0.31282467    -0.87300
O1513       O  0.91620223  0.43697914  0.31052805    -0.74600
C1514       C  0.77782458  0.44173875  0.43612084     0.93500
O1515       O  0.78637188  0.33817983  0.31657700    -0.74400
O1516       O  0.77393151  0.41063503  0.43497834    -0.81900
Mg1517     Mg  0.83810290  0.36178628  0.28890406     1.58000
C1518       C  0.84028456  0.04760704  0.35239102     0.93500
O1519       O  0.88252934  0.37738856  0.25564687    -0.80200
H1520       H  0.92732491  0.51732133  0.32183101    -0.05500
C1521       C  0.77523399  0.43366200  0.34756348     0.88400
O1522       O  0.87569012  0.40924364  0.39644000    -0.74700
O1523       O  0.83856138  0.41071817  0.28186526    -0.87500
O1524       O  0.84843050  0.03878769  0.32788795    -0.80300
C1525       C  0.87444722  0.51180595  0.24377613     0.93600
C1526       C  0.90230583  0.40190772  0.23763934     0.93400
Mg1527     Mg  0.84149485  0.48149309  0.38442881     1.58000
O1528       O  0.79728363  0.46589796  0.41774448    -0.80200
O1529       O  0.89318385  0.50534541  0.35666112    -0.74400
O1530       O  0.87259581  0.48174110  0.24157996    -0.80300
O1531       O  0.84089070  0.31175610  0.29564133    -0.82000
O1532       O  0.80610260  0.35857388  0.43202646    -0.80300
C1533       C  0.90011279  0.50214074  0.32982134     0.87900
O1534       O  0.84145990  0.43226920  0.39212614    -0.87400
O1535       O  0.80741596  0.45598885  0.34600884    -0.87500
O1536       O  0.76364192  0.40618621  0.36383452    -0.74600
Mg1537     Mg  0.89096157  0.45765231  0.27722289     1.58000
O1538       O  0.85870845  0.01836278  0.26462220    -0.82000
H1539       H  0.92304875  0.40570813  0.33985111    -0.05700
O1540       O  0.80306257  0.36085704  0.36080657    -0.87200
H1541       H  0.75204239  0.32579176  0.35131445    -0.05500
H1542       H  0.88558257  0.45527286  0.41692767    -0.05700
C1543       C  0.77934525  0.34084705  0.34351002     0.87800
C1544       C  0.90452853  0.40922269  0.32646355     0.88400
C1545       C  0.86817990  0.43335184  0.40250823     0.88500
H1546       H  0.75660002  0.43725376  0.33440619    -0.05700
O1547       O  0.80352018  0.43276481  0.27740091    -0.74700
Mg1548     Mg  0.78889241  0.38504131  0.39684784     1.58000
H1549       H  0.79443865  0.38694794  0.25709121    -0.05700
C1550       C  0.83725990  0.29401780  0.31890713     0.93500
O1551       O  0.82044503  0.32272560  0.40821299    -0.81900
C1552       C  0.80360037  0.32820110  0.42881077     0.93500
O1553       O  0.90689052  0.43316442  0.23944969    -0.81900
Mg1554     Mg  0.82953658  0.48492457  0.30493050     1.58200
O1555       O  0.83273890  0.30390196  0.34442813    -0.80300
O1556       O  0.83624135  0.03040357  0.37613600    -0.81900
C1557       C  0.97418040  0.38507145  0.21773195    -0.10000
C1558       C  0.95654888  0.40195874  0.22861860    -0.03900
C1559       C  0.92399165  0.39433089  0.21710423    -0.10000
C1560       C  0.91023910  0.37182453  0.19180831     0.10900
C1561       C  0.93012544  0.35728802  0.17874612    -0.01800
C1562       C  0.96218791  0.36366173  0.19206986     0.10700
C1563       C  0.98114973  0.34829109  0.17971553    -0.11800
C1564       C  0.96930366  0.32769732  0.15391591    -0.11800
C1565       C  0.93755442  0.32093139  0.14021009     0.10700
C1566       C  0.91728776  0.33522609  0.15315726    -0.01800
C1567       C  0.87736071  0.36335253  0.17935433    -0.12000
C1568       C  0.86482394  0.34200098  0.15391236    -0.12000
C1569       C  0.88458088  0.32808933  0.14033259     0.10900
C1570       C  0.87291990  0.30769667  0.11398657    -0.10000
C1571       C  0.89373569  0.29480312  0.10095578    -0.03900
C1572       C  0.92577039  0.30087863  0.11360641    -0.10000
H1573       H  0.50576705  0.35284886  0.18958579     0.08200
H1574       H  0.98513982  0.31699659  0.14482048     0.08200
H1575       H  0.86152011  0.37382485  0.18889407     0.08400
H1576       H  0.83962494  0.33670950  0.14477345     0.08400
H1577       H  0.96586115  0.41741996  0.24905515     0.04800
H1578       H  0.88508819  0.28019790  0.08013799     0.04800
O1579       O  0.71565641  0.03638867  0.00762145    -0.87500
C1580       C  0.73312964  0.47009118  0.06073211     0.88500
Mg1581     Mg  0.68897560  0.01641440  0.96594615     1.58100
O1582       O  0.80863213  0.03600840  0.02372462    -0.87300
O1583       O  0.76657189  0.07807598  0.02607095    -0.74600
C1584       C  0.77202729  0.44517172  0.90033920     0.93500
O1585       O  0.66554866  0.44912375  0.01544043    -0.74400
O1586       O  0.74229100  0.44382966  0.90014371    -0.81900
Mg1587     Mg  0.68882116  0.49973881  0.04436578     1.58000
C1588       C  0.87873825  0.00828864  0.98430576     0.93500
O1589       O  0.70505818  0.04440194  0.07782804    -0.80200
H1590       H  0.84591495  0.08752003  0.01903892    -0.05500
C1591       C  0.76242148  0.43796919  0.98591252     0.88400
O1592       O  0.74299439  0.04402072  0.94071327    -0.74700
O1593       O  0.73631486  0.49821787  0.05130075    -0.87500
O1594       O  0.86559196  0.00858327  0.00950845    -0.80300
C1595       C  0.83229076  0.02905607  0.09231027     0.93600
C1596       C  0.72951548  0.06261784  0.09644521     0.93400
Mg1597     Mg  0.81249413  0.00732629  0.95250704     1.58000
O1598       O  0.79620349  0.46322750  0.91914747    -0.80200
O1599       O  0.83591068  0.05733511  0.98181785    -0.74400
O1600       O  0.80063591  0.02301554  0.09274611    -0.80300
O1601       O  0.63883306  0.50182675  0.03679754    -0.82000
O1602       O  0.69887928  0.48178776  0.90386731    -0.80300
C1603       C  0.83098408  0.06134572  0.00892867     0.87900
O1604       O  0.76460416  0.00851407  0.94545817    -0.87400
O1605       O  0.78526157  0.46989965  0.98883092    -0.87500
O1606       O  0.73529673  0.42795513  0.96950132    -0.74600
Mg1607     Mg  0.78360048  0.04895375  0.05874810     1.58000
O1608       O  0.84188426  0.01407994  0.07306781    -0.82000
H1609       H  0.73724638  0.08792193  0.99688638    -0.05700
O1610       O  0.69263413  0.46959483  0.97332030    -0.87200
H1611       H  0.65603350  0.41799659  0.97884115    -0.05500
H1612       H  0.79039332  0.05428396  0.92282311    -0.05700
C1613       C  0.67066660  0.44445107  0.98850173     0.87800
C1614       C  0.73933540  0.06816890  0.00976559     0.88400
C1615       C  0.76713913  0.03623859  0.93573717     0.88500
H1616       H  0.76513185  0.41818298  0.99817787    -0.05700
O1617       O  0.75671807  0.46160565  0.05554804    -0.74700
Mg1618     Mg  0.71762609  0.45734412  0.93774702     1.58000
H1619       H  0.70965251  0.45219738  0.07348522    -0.05700
C1620       C  0.62181868  0.49669415  0.01282775     0.93500
O1621       O  0.65732805  0.48956932  0.92434399    -0.81900
C1622       C  0.66698103  0.47502465  0.90477805     0.93500
O1623       O  0.75944196  0.06429178  0.09595538    -0.81900
Mg1624     Mg  0.81099316  0.48841059  0.03089872     1.58200
O1625       O  0.63421082  0.49475182  0.98770613    -0.80300
O1626       O  0.86262275  0.00511432  0.96012721    -0.81900
O1627       O  0.70037354  0.19289587  0.98900979    -0.87500
C1628       C  0.70647856  0.28803994  0.97579151     0.88500
Mg1629     Mg  0.69935299  0.17303570  0.03278453     1.58100
O1630       O  0.78357054  0.28231444  0.95866837    -0.87300
O1631       O  0.72499604  0.20071425  0.94538182    -0.74600
C1632       C  0.84040262  0.30043531  0.09790075     0.93500
O1633       O  0.66860705  0.22969216  0.03131007    -0.74400
O1634       O  0.81040011  0.27382634  0.10518490    -0.81900
Mg1635     Mg  0.66231292  0.20952663  0.98262230     1.58000
C1636       C  0.87920710  0.37103339  0.99067566     0.93500
O1637       O  0.64838917  0.18933792  0.93481178    -0.80200
H1638       H  0.81013810  0.26325446  0.93585323    -0.05500
C1639       C  0.78337424  0.32437211  0.04143512     0.88400
O1640       O  0.75881068  0.18991834  0.02866904    -0.74700
O1641       O  0.70598816  0.26044691  0.96811163    -0.87500
O1642       O  0.85527568  0.35901990  0.97090154    -0.80300
C1643       C  0.77519133  0.34077203  0.90911098     0.93600
C1644       C  0.65465677  0.20621338  0.91051800     0.93400
Mg1645     Mg  0.83216809  0.29742133  0.02705046     1.58000
O1646       O  0.84375330  0.31855627  0.07484957    -0.80200
O1647       O  0.82636675  0.27686301  0.97857464    -0.74400
O1648       O  0.74965012  0.30863299  0.90844262    -0.80300
O1649       O  0.61864573  0.15326205  0.99494777    -0.82000
O1650       O  0.74571629  0.19611155  0.09982871    -0.80300
C1651       C  0.80669875  0.27378216  0.95664685     0.87900
O1652       O  0.78847717  0.24621302  0.04130183    -0.87400
O1653       O  0.79401699  0.31371498  0.02044417    -0.87500
O1654       O  0.76966769  0.30530195  0.06439242    -0.74600
Mg1655     Mg  0.73632403  0.25633257  0.93107681     1.58000
O1656       O  0.79632246  0.35363710  0.93089327    -0.82000
H1657       H  0.70801139  0.15564168  0.96963912    -0.05700
O1658       O  0.71100281  0.22378780  0.05136136    -0.87200
H1659       H  0.68466275  0.24315128  0.07408634    -0.05500
H1660       H  0.81296994  0.21910681  0.03052917    -0.05700
C1661       C  0.68809890  0.23259383  0.05330421     0.87800
C1662       C  0.71076742  0.18177313  0.96823319     0.88400
C1663       C  0.78801749  0.21863037  0.03362179     0.88500
H1664       H  0.78566552  0.35031620  0.04022779    -0.05700
O1665       O  0.73566079  0.31666899  0.98090877    -0.74700
Mg1666     Mg  0.75862053  0.24951989  0.07871680     1.58000
H1667       H  0.68153607  0.28758788  0.97887170    -0.05700
C1668       C  0.61603960  0.13448567  0.01727150     0.93500
O1669       O  0.69725455  0.15230195  0.07817193    -0.81900
C1670       C  0.71959182  0.16415227  0.09913074     0.93500
O1671       O  0.68553037  0.23188957  0.90396156    -0.81900
Mg1672     Mg  0.79488620  0.33330650  0.97658101     1.58200
O1673       O  0.63882607  0.14696235  0.03795959    -0.80300
O1674       O  0.87636075  0.35318055  0.01374674    -0.81900
O1675       O  0.51204777  0.30802136  0.01798403    -0.87500
C1676       C  0.92007830  0.21229003  0.02627749     0.88500
Mg1677     Mg  0.53614758  0.33394787  0.97642252     1.58100
O1678       O  0.50229426  0.21692216  0.04287960    -0.87300
O1679       O  0.52372819  0.29650211  0.06209510    -0.74600
C1680       C  0.54443580  0.20911564  0.89928030     0.93500
O1681       O  0.94648007  0.27478029  0.97361275    -0.74400
O1682       O  0.54571035  0.23837493  0.89290022    -0.81900
Mg1683     Mg  0.95673558  0.29085639  0.02321666     1.58000
C1684       C  0.51212363  0.13436071  0.00198262     0.93500
O1685       O  0.96218865  0.30841634  0.07204265    -0.80200
H1686       H  0.54909117  0.23720031  0.06387609    -0.05500
C1687       C  0.96451383  0.18634747  0.95627742     0.88400
O1688       O  0.57695952  0.31558523  0.97858621    -0.74700
O1689       O  0.94737160  0.23881258  0.03540918    -0.87500
O1690       O  0.99841985  0.14351994  0.02264791    -0.80300
C1691       C  0.93177095  0.15012874  0.08709386     0.93600
C1692       C  0.94780372  0.29034543  0.09538651     0.93400
Mg1693     Mg  0.53880630  0.21002042  0.97023520     1.58000
O1694       O  0.52685344  0.19116774  0.92171581    -0.80200
O1695       O  0.55171623  0.22705796  0.02003668    -0.74400
O1696       O  0.93826810  0.18191279  0.09233804    -0.80300
O1697       O  0.96809529  0.34681991  0.01289506    -0.82000
O1698       O  0.56046902  0.32090052  0.90229576    -0.80300
C1699       C  0.53471406  0.22736323  0.04326482     0.87900
O1700       O  0.54959263  0.26251275  0.95880133    -0.87400
O1701       O  0.98475289  0.19468137  0.97774153    -0.87500
O1702       O  0.97223931  0.20707392  0.93413614    -0.74600
Mg1703     Mg  0.97838153  0.23917616  0.07300810     1.58000
O1704       O  0.94108672  0.14186017  0.06297934    -0.82000
H1705       H  0.55489713  0.34354587  0.04082059    -0.05700
O1706       O  0.99693192  0.28726117  0.95163140    -0.87200
H1707       H  0.95081496  0.26678627  0.92969138    -0.05500
H1708       H  0.60060446  0.28610259  0.97140082    -0.05700
C1709       C  0.96448011  0.27623210  0.95063989     0.87800
C1710       C  0.53127542  0.31728685  0.04011370     0.88400
C1711       C  0.57683944  0.28798034  0.96918214     0.88500
H1712       H  0.93992903  0.16084598  0.95618932    -0.05700
O1713       O  0.92043021  0.18445087  0.01821889    -0.74700
Mg1714     Mg  0.51898123  0.26362968  0.92162993     1.58000
H1715       H  0.89573227  0.21315606  0.02435851    -0.05700
C1716       C  0.98688162  0.36922365  0.99307127     0.93500
O1717       O  0.56114035  0.36121844  0.93371668    -0.81900
C1718       C  0.56905358  0.35310105  0.90882665     0.93500
O1719       O  0.94947866  0.26246604  0.10135534    -0.81900
Mg1720     Mg  0.96348883  0.16882128  0.01981257     1.58200
O1721       O  0.50505094  0.36316963  0.97424955    -0.80300
O1722       O  0.52703660  0.15408287  0.97974705    -0.81900
O1723       O  0.68036210  0.14189198  0.68014132    -0.87500
C1724       C  0.59192303  0.04986475  0.70063407     0.88500
Mg1725     Mg  0.69119033  0.16072325  0.63557236     1.58100
O1726       O  0.67376842  0.05088982  0.70733800    -0.87300
O1727       O  0.70348601  0.13337245  0.71995726    -0.74600
C1728       C  0.69683822  0.03573701  0.56576636     0.93500
O1729       O  0.60413055  0.10528702  0.64775806    -0.74400
O1730       O  0.69190673  0.06102144  0.55854051    -0.81900
Mg1731     Mg  0.62803360  0.12686205  0.69458386     1.58000
C1732       C  0.67608326  0.46372512  0.66927649     0.93500
O1733       O  0.64924339  0.14824378  0.74024260    -0.80200
H1734       H  0.72154165  0.06833273  0.72581624    -0.05500
C1735       C  0.62039298  0.00927524  0.62793888     0.88400
O1736       O  0.73416183  0.14449353  0.63229880    -0.74700
O1737       O  0.62118569  0.07630087  0.70616851    -0.87500
O1738       O  0.66071100  0.47173824  0.68947045    -0.80300
C1739       C  0.60773594  0.49518310  0.75988461     0.93600
C1740       C  0.63421940  0.13026023  0.76329420     0.93400
Mg1741     Mg  0.69804457  0.03691625  0.63483051     1.58000
O1742       O  0.68080390  0.01653535  0.58807157    -0.80200
O1743       O  0.71948211  0.05667391  0.68188970    -0.74400
O1744       O  0.61916921  0.02833677  0.76203816    -0.80300
O1745       O  0.63802146  0.18168610  0.68421141    -0.82000
O1746       O  0.70787368  0.13620111  0.56880548    -0.80300
C1747       C  0.70535905  0.05875007  0.70605977     0.87900
O1748       O  0.70353196  0.08737817  0.62346224    -0.87400
O1749       O  0.64422918  0.02030912  0.64677379    -0.87500
O1750       O  0.62294531  0.02808156  0.60556525    -0.74600
Mg1751     Mg  0.65920276  0.07913641  0.73857405     1.58000
O1752       O  0.61282394  0.48103154  0.73701577    -0.82000
H1753       H  0.72973486  0.17726967  0.69379762    -0.05700
O1754       O  0.64847492  0.10947435  0.62101086    -0.87200
H1755       H  0.59940894  0.09006022  0.60439279    -0.05500
H1756       H  0.75681897  0.11377799  0.62644999    -0.05700
C1757       C  0.61675608  0.10109823  0.62338495     0.87800
C1758       C  0.70549573  0.15206802  0.69763590     0.88400
C1759       C  0.73252579  0.11491258  0.62725416     0.88500
H1760       H  0.59683502  0.98322692  0.63064021    -0.05700
O1761       O  0.58929237  0.02050230  0.69301947    -0.74700
Mg1762     Mg  0.66686591  0.08378458  0.58967337     1.58000
H1763       H  0.56826900  0.05215738  0.70127416    -0.05700
C1764       C  0.64807463  0.19850309  0.65998073     0.93500
O1765       O  0.70202915  0.17980294  0.58892146    -0.81900
C1766       C  0.71404888  0.16799342  0.56898285     0.93500
O1767       O  0.63893218  0.10497879  0.77082199    -0.81900
Mg1768     Mg  0.62937841  0.00109874  0.69089714     1.58200
O1769       O  0.65600283  0.18602618  0.63753916    -0.80300
O1770       O  0.68973661  0.48267112  0.64629144    -0.81900
C1771       C  0.62421399  0.19764446  0.89093815    -0.10000
C1772       C  0.59894075  0.20606509  0.90143473    -0.03900
C1773       C  0.56889025  0.19897740  0.88480556    -0.10000
C1774       C  0.56264429  0.18065268  0.85727073     0.10900
C1775       C  0.58848913  0.17248698  0.84616158    -0.01800
C1776       C  0.61984628  0.18200019  0.86271972     0.10700
C1777       C  0.64579208  0.17516689  0.85088996    -0.11800
C1778       C  0.64150321  0.15980849  0.82303249    -0.11800
C1779       C  0.61043698  0.14937207  0.80657081     0.10700
C1780       C  0.58312065  0.15474977  0.81843535    -0.01800
C1781       C  0.53138188  0.16973634  0.84079080    -0.12000
C1782       C  0.52548175  0.15100519  0.81393212    -0.12000
C1783       C  0.55101150  0.14324099  0.80228513     0.10900
C1784       C  0.54637278  0.12561008  0.77445560    -0.10000
C1785       C  0.57447365  0.12222430  0.76281742    -0.03900
C1786       C  0.60633467  0.13434963  0.77817309    -0.10000
H1787       H  0.66992261  0.18205507  0.86290801     0.08200
H1788       H  0.66269229  0.15587466  0.81461864     0.08200
H1789       H  0.51112001  0.17534709  0.84874929     0.08400
H1790       H  0.00095078  0.14304875  0.80213612     0.08400
H1791       H  0.60293214  0.21874944  0.92304680     0.04800
H1792       H  0.57172458  0.11036151  0.74097649     0.04800
C1793       C  0.58997990  0.38351024  0.88828689    -0.10000
C1794       C  0.62175619  0.41169628  0.89995882    -0.03900
C1795       C  0.63940796  0.44554726  0.88695772    -0.10000
C1796       C  0.62664447  0.45143048  0.86042928     0.10900
C1797       C  0.59403268  0.42389166  0.84848125    -0.01800
C1798       C  0.57546020  0.38972703  0.86225907     0.10700
C1799       C  0.54249825  0.36362291  0.85018474    -0.11800
C1800       C  0.52798314  0.37103889  0.82536609    -0.11800
C1801       C  0.54575826  0.40490384  0.81197734     0.10700
C1802       C  0.57935506  0.43127804  0.82340462    -0.01800
C1803       C  0.64547762  0.48446424  0.84589268    -0.12000
C1804       C  0.63238900  0.49062916  0.82001941    -0.12000
C1805       C  0.59911802  0.46471069  0.80888583     0.10900
C1806       C  0.58515517  0.47111236  0.78323240    -0.10000
C1807       C  0.55047381  0.44736973  0.77477961    -0.03900
C1808       C  0.53136519  0.41372182  0.78742516    -0.10000
H1809       H  0.52757653  0.33735545  0.85999732     0.08200
H1810       H  0.00243216  0.35033827  0.81699933     0.08200
H1811       H  0.67078644  0.50564258  0.85423519     0.08400
H1812       H  0.64790496  0.01633501  0.80936098     0.08400
H1813       H  0.63149961  0.40801488  0.92096099     0.04800
H1814       H  0.54048109  0.45295875  0.75468739     0.04800
O1815       O  0.85894325  0.03900876  0.68521444    -0.87500
C1816       C  0.95339827  0.04196708  0.69254571     0.88500
Mg1817     Mg  0.83333115  0.03660564  0.64338601     1.58100
O1818       O  0.95007750  0.12010558  0.71058942    -0.87300
O1819       O  0.87031658  0.06205721  0.72970788    -0.74600
C1820       C  0.95816764  0.17242067  0.56731258     0.93500
O1821       O  0.89198365  0.00693720  0.64028204    -0.74400
O1822       O  0.92899770  0.14374867  0.56096764    -0.81900
Mg1823     Mg  0.87556203  0.00059350  0.68996150     1.58000
C1824       C  0.53259063  0.21298225  0.67112237     0.93500
O1825       O  0.85777867  0.48767980  0.73880679    -0.80200
H1826       H  0.92972778  0.14618660  0.73237075    -0.05500
C1827       C  0.98082333  0.11480801  0.62282822     0.88400
O1828       O  0.85106336  0.09598656  0.64619727    -0.74700
O1829       O  0.92746521  0.04306995  0.70248948    -0.87500
O1830       O  0.52397499  0.18934858  0.69079127    -0.80300
C1831       C  0.51653918  0.11638351  0.75373896     0.93600
C1832       C  0.87582414  0.99180173  0.76213007     0.93400
Mg1833     Mg  0.95672703  0.16452942  0.63892146     1.58000
O1834       O  0.97589922  0.17400937  0.59014572    -0.80200
O1835       O  0.93962855  0.15916416  0.68869534    -0.74400
O1836       O  0.98450593  0.09173043  0.75951912    -0.80300
O1837       O  0.81995232  0.45605946  0.67937624    -0.82000
O1838       O  0.84657605  0.07390581  0.56985110    -0.80300
C1839       C  0.93958546  0.14190793  0.71155080     0.87900
O1840       O  0.90430366  0.12261507  0.62667110    -0.87400
O1841       O  0.97192231  0.12557122  0.64487558    -0.87500
O1842       O  0.96036863  0.10200437  0.60050453    -0.74600
Mg1843     Mg  0.92744800  0.07408379  0.74037595     1.58000
O1844       O  0.52494125  0.13297624  0.72930419    -0.82000
H1845       H  0.82359889  0.04636277  0.70829960    -0.05700
O1846       O  0.88041278  0.04527236  0.61875583    -0.87200
H1847       H  0.90092955  0.01966891  0.59657105    -0.05500
H1848       H  0.88030656  0.14951576  0.63954762    -0.05700
C1849       C  0.89123117  0.02379841  0.61753122     0.87800
C1850       C  0.84969813  0.04896230  0.70754303     0.88400
C1851       C  0.87864637  0.12391489  0.63708217     0.88500
H1852       H  0.00655712  0.11656890  0.62239957    -0.05700
O1853       O  0.98104900  0.07003507  0.68378100    -0.74700
Mg1854     Mg  0.90375725  0.09115054  0.58900341     1.58000
H1855       H  0.95197017  0.01646146  0.69023396    -0.05700
C1856       C  0.79850745  0.45211688  0.65888150     0.93500
O1857       O  0.80616830  0.03319992  0.60055809    -0.81900
C1858       C  0.81451136  0.04935834  0.57589037     0.93500
O1859       O  0.90370760  0.02175878  0.76822291    -0.81900
Mg1860     Mg  0.99765499  0.12907609  0.68664456     1.58200
O1861       O  0.80548566  0.47614927  0.63990616    -0.80300
O1862       O  0.51252813  0.20877683  0.64943660    -0.81900
O1863       O  0.97476985  0.34453008  0.65535703    -0.87500
C1864       C  0.88087620  0.25403089  0.64067577     0.88500
Mg1865     Mg  0.99496751  0.36151533  0.69975481     1.58100
O1866       O  0.88468954  0.33633190  0.62575772    -0.87300
O1867       O  0.96648733  0.36161967  0.61233216    -0.74600
C1868       C  0.86964618  0.37553526  0.76623275     0.93500
O1869       O  0.93851406  0.27390152  0.69485056    -0.74400
O1870       O  0.89578725  0.37183790  0.77360351    -0.81900
Mg1871     Mg  0.95905245  0.29019903  0.64631517     1.58000
C1872       C  0.79597454  0.34105592  0.66083505     0.93500
O1873       O  0.97973401  0.30046673  0.59857471    -0.80200
H1874       H  0.90356883  0.38254248  0.60411547    -0.05500
C1875       C  0.84360531  0.29329257  0.70907158     0.88400
O1876       O  0.97906057  0.40484460  0.69855589    -0.74700
O1877       O  0.90786166  0.28175046  0.63280631    -0.87500
O1878       O  0.80626162  0.32730563  0.64099774    -0.80300
C1879       C  0.82618568  0.26862943  0.57589821     0.93600
C1880       C  0.96182259  0.28677878  0.57510062     0.93400
Mg1881     Mg  0.87122606  0.36937044  0.69577436     1.58000
O1882       O  0.85094008  0.35953758  0.74360271    -0.80200
O1883       O  0.89110291  0.38460433  0.64737670    -0.74400
O1884       O  0.85869339  0.27710996  0.57358296    -0.80300
O1885       O  0.51540256  0.30349289  0.65744689    -0.82000
O1886       O  0.97260299  0.38316273  0.76795736    -0.80300
C1887       C  0.89337118  0.36818202  0.62469980     0.87900
O1888       O  0.92241613  0.37688269  0.70954628    -0.87400
O1889       O  0.85465841  0.31460755  0.68826836    -0.87500
O1890       O  0.86259625  0.29859607  0.73193416    -0.74600
Mg1891     Mg  0.91106913  0.31641054  0.59686051     1.58000
O1892       O  0.81371957  0.27530579  0.59904750    -0.82000
H1893       H  0.01113390  0.39082804  0.63707376    -0.05700
O1894       O  0.94397202  0.32127279  0.71748799    -0.87200
H1895       H  0.92418760  0.27417945  0.73793212    -0.05500
H1896       H  0.94988733  0.42945855  0.70181746    -0.05700
C1897       C  0.93507720  0.28933390  0.71778179     0.87800
C1898       C  0.98538408  0.36670344  0.63521044     0.88400
C1899       C  0.95020507  0.40478241  0.70340320     0.88500
H1900       H  0.81736929  0.26970621  0.70779048    -0.05700
O1901       O  0.85229921  0.25371634  0.64723006    -0.74700
Mg1902     Mg  0.91882455  0.34321849  0.74626561     1.58000
H1903       H  0.88195424  0.22981337  0.64289980    -0.05700
C1904       C  0.53391120  0.31853338  0.68028562     0.93500
O1905       O  0.51538544  0.37733930  0.74593649    -0.81900
C1906       C  0.50404667  0.38796482  0.76736197     0.93500
O1907       O  0.93550193  0.29048389  0.56858187    -0.81900
Mg1908     Mg  0.83451503  0.29513417  0.64454114     1.58200
O1909       O  0.52100389  0.32709607  0.70202317    -0.80300
O1910       O  0.81523946  0.35749864  0.68313238    -0.81900
C1911       C  0.77804018  0.36591401  0.88636979    -0.10000
C1912       C  0.76484324  0.38760111  0.89517221    -0.03900
C1913       C  0.77670346  0.42042159  0.88195283    -0.10000
C1914       C  0.79949969  0.43086464  0.85705597     0.10900
C1915       C  0.81052437  0.40739697  0.84590029    -0.01800
C1916       C  0.80016555  0.37481727  0.86088937     0.10700
C1917       C  0.81224422  0.35237344  0.85010844    -0.11800
C1918       C  0.83276632  0.36096778  0.82421035    -0.11800
C1919       C  0.84305407  0.39298997  0.80898173     0.10700
C1920       C  0.83290540  0.41710737  0.82048925    -0.01800
C1921       C  0.81158298  0.46398797  0.84326607    -0.12000
C1922       C  0.83361162  0.47363169  0.81825277    -0.13800
C1923       C  0.84434283  0.45050286  0.80633149     0.10900
C1924       C  0.86549378  0.45936376  0.78027926    -0.10000
C1925       C  0.87357154  0.43421023  0.76838360    -0.03900
C1926       C  0.86259261  0.40128182  0.78221390    -0.10000
H1927       H  0.80490429  0.32749465  0.86113860     0.08200
H1928       H  0.84057628  0.34231367  0.81620783     0.08200
H1929       H  0.80355264  0.48239850  0.85150386     0.08400
H1930       H  0.84189944  0.99921611  0.80812947     0.08400
H1931       H  0.74884645  0.38106439  0.91535440     0.04800
H1932       H  0.88817936  0.44009936  0.74756657     0.04800
C1933       C  0.53788028  0.30635981  0.44505081    -0.10000
C1934       C  0.55094194  0.28657109  0.43091145    -0.03900
C1935       C  0.54713806  0.25555397  0.44341420    -0.10000
C1936       C  0.52807959  0.24291952  0.47072936     0.10900
C1937       C  0.51603022  0.26386169  0.48580949    -0.01800
C1938       C  0.52203069  0.29631723  0.47322750     0.10700
C1939       C  0.51156040  0.31765461  0.48880693    -0.11800
C1940       C  0.99523559  0.30732087  0.51637245    -0.11800
C1941       C  0.98743388  0.27456631  0.52873114     0.10700
C1942       C  0.99731156  0.25216922  0.51319876    -0.01800
C1943       C  0.52029524  0.21011085  0.48326139    -0.12000
C1944       C  0.00048293  0.19781488  0.50972441    -0.12000
C1945       C  0.98859940  0.21833769  0.52499801     0.10900
C1946       C  0.96877359  0.20667299  0.55196547    -0.10000
C1947       C  0.96090443  0.23010754  0.56743323    -0.03900
C1948       C  0.97032475  0.26385064  0.55644247    -0.10000
H1949       H  0.51619407  0.34274750  0.47990789     0.08200
H1950       H  0.98818344  0.32501137  0.52767244     0.08200
H1951       H  0.52910219  0.19352839  0.47242976     0.08400
H1952       H  0.99474377  0.17221443  0.51831757     0.08400
H1953       H  0.56365259  0.29510636  0.40930557     0.04800
H1954       H  0.94717890  0.22192664  0.58866523     0.04800
C1955       C  0.77580824  0.29681730  0.44531435    -0.10000
C1956       C  0.74281142  0.27605036  0.43100828    -0.03900
C1957       C  0.71562962  0.24358173  0.44272510    -0.10000
C1958       C  0.72165270  0.23139292  0.46977682     0.10900
C1959       C  0.75502802  0.25197045  0.48449738    -0.01800
C1960       C  0.78198299  0.28500380  0.47251117     0.10700
C1961       C  0.81432462  0.30507565  0.48793152    -0.11800
C1962       C  0.82031330  0.29288203  0.51465314    -0.11800
C1963       C  0.79458336  0.25975054  0.52634174     0.10700
C1964       C  0.76165728  0.23914219  0.51109556    -0.01800
C1965       C  0.69534685  0.19911677  0.48239905    -0.12000
C1966       C  0.70163664  0.18699245  0.50890052    -0.12000
C1967       C  0.73468607  0.20640074  0.52325461     0.10900
C1968       C  0.74160837  0.19419635  0.54975169    -0.10000
C1969       C  0.77466252  0.21309999  0.56317491    -0.03900
C1970       C  0.80023041  0.24653533  0.55316153    -0.10000
H1971       H  0.83517117  0.33050140  0.47947601     0.08200
H1972       H  0.84551605  0.30921793  0.52583038     0.08200
H1973       H  0.66963347  0.18307022  0.47189233     0.08400
H1974       H  0.68066762  0.16194315  0.51786151     0.08400
H1975       H  0.73868808  0.28473604  0.40965791     0.04800
H1976       H  0.77878178  0.20374942  0.58427358     0.04800
C1977       C  0.69929534  0.45014352  0.44693350    -0.10000
C1978       C  0.72117142  0.43681485  0.43926227    -0.03900
C1979       C  0.75310014  0.44797000  0.45394383    -0.10000
C1980       C  0.76237880  0.47170065  0.47872887     0.10900
C1981       C  0.73769628  0.48199426  0.48867962    -0.01800
C1982       C  0.70580770  0.47083972  0.47265971     0.10700
C1983       C  0.68148188  0.48107026  0.48231144    -0.11800
C1984       C  0.68764018  0.00088025  0.50812186    -0.11800
C1985       C  0.71917161  0.01261566  0.52426259     0.10700
C1986       C  0.74525117  0.00447278  0.51390185    -0.01800
C1987       C  0.79498470  0.48536404  0.49382843    -0.12000
C1988       C  0.80274905  0.00803127  0.51863526    -0.12000
C1989       C  0.77816013  0.01781125  0.52918475     0.10900
C1990       C  0.78458959  0.03945560  0.55504356    -0.10000
C1991       C  0.75750014  0.04532862  0.56554312    -0.03900
C1992       C  0.72490875  0.03169396  0.55088333    -0.10000
H1993       H  0.65691317  0.47283208  0.47045968     0.08200
H1994       H  0.66757159  0.00719512  0.51519644     0.08200
H1995       H  0.81443999  0.47820561  0.48671865     0.08400
H1996       H  0.82802575  0.01757744  0.52971016     0.08400
H1997       H  0.71543774  0.42109668  0.41898283     0.04800
H1998       H  0.76131734  0.05967987  0.58630057     0.04800
C1999       C  0.49831125  0.46875704  0.99788330     0.03100
C2000       C  0.53055146  0.99997177  0.00567347     0.03100
C2001       C  0.53204342  0.03328267  0.00747999     0.03100
C2002       C  0.50143524  0.03518407  0.00095508     0.03100
C2003       C  0.96924165  0.00400148  0.99326846     0.03100
C2004       C  0.96744849  0.47058698  0.99247654     0.03100
C2005       C  0.83165099  0.13554148  0.34042754     0.03100
C2006       C  0.86612158  0.16496337  0.33589100     0.03100
C2007       C  0.87056812  0.19821209  0.32745019     0.03100
C2008       C  0.84041615  0.20215071  0.32368253     0.03100
C2009       C  0.80584937  0.17246777  0.32722178     0.03100
C2010       C  0.80144209  0.13928137  0.33600159     0.03100
C2011       C  0.66827168  0.36621732  0.66957455     0.03100
C2012       C  0.63465467  0.33467931  0.67256849     0.03100
C2013       C  0.63219640  0.30124078  0.66932261     0.03100
C2014       C  0.66298211  0.29891061  0.66368918     0.03100
C2015       C  0.69678443  0.33041279  0.66181957     0.03100
C2016       C  0.69910458  0.36389249  0.66399703     0.03100
C2017       C  0.57091978  0.32790271  0.68065033    -0.12500
C2018       C  0.60164758  0.33505737  0.67796452    -0.14000
C2019       C  0.76032390  0.33545360  0.65881745    -0.12500
C2020       C  0.72998443  0.32981254  0.65905943    -0.14000
C2021       C  0.76386120  0.42074751  0.65856151    -0.12500
C2022       C  0.73384781  0.39583950  0.66064592    -0.14000
C2023       C  0.56725005  0.24423776  0.67240155    -0.12500
C2024       C  0.59729441  0.26924200  0.67144821    -0.14000
C2025       C  0.65907463  0.26396755  0.66008122    -0.12500
C2026       C  0.65293972  0.23364376  0.65862165    -0.14000
C2027       C  0.67532693  0.43048231  0.67157791    -0.12500
C2028       C  0.67157068  0.40102285  0.67157106    -0.14000
C2029       C  0.50375764  0.06978791  0.00213058    -0.12500
C2030       C  0.50855069  0.09968643  0.00293691    -0.14000
C2031       C  0.99594114  0.43413330  0.99550028    -0.12500
C2032       C  0.99053246  0.40402156  0.99344092    -0.14000
C2033       C  0.56469197  0.06656481  0.01475191    -0.12500
C2034       C  0.58810633  0.09742373  0.01795081    -0.14000
C2035       C  0.93396696  0.43718146  0.98809052    -0.12500
C2036       C  0.90914253  0.40678128  0.98767954    -0.14000
C2037       C  0.91193325  0.00894999  0.98388426    -0.12500
C2038       C  0.93808275  0.00652257  0.98699576    -0.14000
C2039       C  0.58839816  0.49554942  0.01341312    -0.12500
C2040       C  0.56196546  0.49761995  0.01102603    -0.14000
C2041       C  0.82873481  0.10169149  0.34834671    -0.12500
C2042       C  0.83364151  0.07695868  0.35231546    -0.14000
C2043       C  0.84374445  0.23668696  0.31834770    -0.12500
C2044       C  0.84064478  0.26277408  0.31694824    -0.14000
C2045       C  0.73606091  0.08384832  0.34053249    -0.12500
C2046       C  0.76585459  0.10918992  0.33969418    -0.14000
C2047       C  0.93660582  0.25255391  0.32272804    -0.12500
C2048       C  0.90627706  0.22815495  0.32365435    -0.14000
C2049       C  0.75028976  0.18175929  0.31859797    -0.12500
C2050       C  0.77500813  0.17673754  0.32216452    -0.14000
C2051       C  0.92185789  0.15565562  0.34249141    -0.12500
C2052       C  0.89695985  0.16051744  0.33989992    -0.14000
O2053       O  0.54773353  0.69575525  0.33622329    -0.87500
C2054       C  0.57896755  0.64867071  0.39916853     0.88500
Mg2055     Mg  0.51944908  0.67001806  0.29560590     1.58100
O2056       O  0.64635773  0.71425796  0.35335295    -0.87300
O2057       O  0.59320045  0.74501006  0.35265874    -0.74600
C2058       C  0.61263750  0.59985851  0.23757967     0.93500
O2059       O  0.50766725  0.61255181  0.35200233    -0.74400
O2060       O  0.58018141  0.59263746  0.23734437    -0.81900
Mg2061     Mg  0.52528520  0.66554948  0.37674457     1.58000
C2062       C  0.71848205  0.68428454  0.31727927     0.93500
O2063       O  0.53555390  0.71229294  0.40674537    -0.80200
H2064       H  0.67481166  0.76397667  0.33760596    -0.05500
C2065       C  0.60527762  0.60965482  0.32500153     0.88400
O2066       O  0.57085628  0.69709595  0.26768923    -0.74700
O2067       O  0.57737325  0.67333212  0.38731694    -0.87500
O2068       O  0.70885122  0.69403828  0.34046510    -0.80300
C2069       C  0.68418944  0.72169314  0.42338120     0.93600
C2070       C  0.55862949  0.73529161  0.42430607     0.93400
Mg2071     Mg  0.64701211  0.67131687  0.28338086     1.58000
O2072       O  0.63572634  0.62331514  0.25483461    -0.80200
O2073       O  0.66479970  0.72521939  0.30718453    -0.74400
O2074       O  0.65718916  0.72608587  0.42447480    -0.80300
O2075       O  0.97217287  0.66144615  0.36631900    -0.82000
O2076       O  0.51597292  0.61443664  0.23464984    -0.80300
C2077       C  0.66259830  0.73566880  0.33317132     0.87900
O2078       O  0.59545638  0.66436434  0.27257321    -0.87400
O2079       O  0.62483419  0.64244816  0.32427881    -0.87500
O2080       O  0.57788123  0.59359165  0.30858999    -0.74600
Mg2081     Mg  0.62064570  0.72898744  0.38775884     1.58000
O2082       O  0.68737266  0.70249297  0.40354998    -0.82000
H2083       H  0.55876103  0.74373952  0.32183632    -0.05700
O2084       O  0.52540766  0.62465510  0.30571837    -0.87200
H2085       H  0.49655282  0.57459002  0.32059215    -0.05500
H2086       H  0.61614828  0.70700146  0.24608773    -0.05700
C2087       C  0.50909686  0.60279662  0.32560546     0.87800
C2088       C  0.56591396  0.72862873  0.33629538     0.88400
C2089       C  0.59497447  0.68985635  0.26120792     0.88500
H2090       H  0.61135298  0.59431939  0.34016581    -0.05700
O2091       O  0.60395719  0.64257413  0.39299571    -0.74700
Mg2092     Mg  0.55118849  0.60931686  0.27216436     1.58000
H2093       H  0.55825676  0.63145836  0.41460406    -0.05700
C2094       C  0.95414859  0.65410145  0.34262979     0.93500
O2095       O  0.98782536  0.64070765  0.25481957    -0.81900
C2096       C  0.49005441  0.62070162  0.23521261     0.93500
O2097       O  0.59130424  0.74331930  0.42373978    -0.81900
Mg2098     Mg  0.65461832  0.67054212  0.36397759     1.58200
O2099       O  0.96504400  0.64841702  0.31810570    -0.80300
O2100       O  0.69964916  0.67434251  0.29398364    -0.81900
C2101       C  0.62458066  0.57953565  0.21890723    -0.10000
C2102       C  0.61901648  0.54741833  0.23065205    -0.03900
C2103       C  0.63511873  0.52940325  0.21815839    -0.10000
C2104       C  0.65622413  0.54253233  0.19250154     0.10900
C2105       C  0.66319048  0.57557508  0.18062072    -0.01800
C2106       C  0.64747439  0.59433182  0.19375728     0.10700
C2107       C  0.65530424  0.62724541  0.18139995    -0.11800
C2108       C  0.67823534  0.64147783  0.15681933    -0.11800
C2109       C  0.69446611  0.62350530  0.14402965     0.10700
C2110       C  0.68658548  0.59013797  0.15593477    -0.01800
C2111       C  0.67084192  0.52361865  0.17870708    -0.12000
C2112       C  0.69234242  0.53710963  0.15367091    -0.12000
C2113       C  0.70093323  0.57050520  0.14229793     0.10900
C2114       C  0.72344214  0.58474965  0.11740847    -0.10000
C2115       C  0.73356077  0.61870598  0.10760964    -0.03900
C2116       C  0.71818533  0.63747014  0.11943843    -0.10000
H2117       H  0.64364106  0.64215052  0.19064191     0.08200
H2118       H  0.68363337  0.66691917  0.14810107     0.08200
H2119       H  0.66558125  0.99808666  0.18707858     0.08400
H2120       H  0.70301277  0.52164225  0.14371304     0.08400
H2121       H  0.60334747  0.53716545  0.25084475     0.04800
H2122       H  0.74983549  0.62853221  0.08762319     0.04800
C2123       C  0.89868517  0.54114619  0.22390473    -0.10000
C2124       C  0.93250397  0.56577030  0.23476249    -0.03900
C2125       C  0.95660045  0.59642732  0.21885355    -0.10000
C2126       C  0.94551389  0.60344683  0.19134192     0.10900
C2127       C  0.91181949  0.57744657  0.17943193    -0.01800
C2128       C  0.88890275  0.54577090  0.19548821     0.10700
C2129       C  0.85671626  0.51949795  0.18285381    -0.11800
C2130       C  0.84738550  0.52364464  0.15450398    -0.11800
C2131       C  0.86897453  0.55503493  0.13853594     0.10700
C2132       C  0.90076405  0.58292576  0.15141473    -0.01800
C2133       C  0.96653069  0.63522397  0.17544214    -0.12000
C2134       C  0.95475952  0.64136174  0.14834352    -0.12000
C2135       C  0.92201314  0.61549451  0.13582190     0.10900
C2136       C  0.91021604  0.62013290  0.10765134    -0.10000
C2137       C  0.87959300  0.59148575  0.09512925    -0.03900
C2138       C  0.85985768  0.55892380  0.10966901    -0.10000
H2139       H  0.83888541  0.99504719  0.19450814     0.08200
H2140       H  0.82274520  0.50224619  0.14535079     0.08200
H2141       H  0.49212206  0.65559370  0.18400248     0.08400
H2142       H  0.97178931  0.66626894  0.13697682     0.08400
H2143       H  0.93992850  0.56134764  0.25658161     0.04800
H2144       H  0.87190146  0.59396478  0.07281822     0.04800
O2145       O  0.52667119  0.87276656  0.34828865    -0.87500
C2146       C  0.62030352  0.87899114  0.36387059     0.88500
Mg2147     Mg  0.50691654  0.86675199  0.30441569     1.58100
O2148       O  0.61785539  0.95878582  0.37469625    -0.87300
O2149       O  0.53608266  0.90364709  0.38915659    -0.74600
C2150       C  0.63104237  0.99843794  0.23425102     0.93500
O2151       O  0.56289043  0.83499273  0.31169096    -0.74400
O2152       O  0.60568369  0.96765757  0.22761369    -0.81900
Mg2153     Mg  0.54305604  0.83583739  0.35944749     1.58000
C2154       C  0.70296326  0.55100152  0.33815552     0.93500
O2155       O  0.52282828  0.83263669  0.40645736    -0.80200
H2156       H  0.59991948  0.98766505  0.39537660    -0.05500
C2157       C  0.65838799  0.94948953  0.29439014     0.88400
O2158       O  0.52352465  0.92615533  0.30386005    -0.74700
O2159       O  0.59361949  0.88066414  0.37062626    -0.87500
O2160       O  0.69551890  0.52731389  0.35770110    -0.80300
C2161       C  0.67555240  0.94873448  0.42388361     0.93600
C2162       C  0.54185399  0.83738174  0.42909181     0.93400
Mg2163     Mg  0.63013778  0.99870575  0.30383716     1.58000
O2164       O  0.65037326  0.50337909  0.25670693    -0.80200
O2165       O  0.61082302  0.99884336  0.35156673    -0.74400
O2166       O  0.64266219  0.92586845  0.42567092    -0.80300
O2167       O  0.98849539  0.78997492  0.34862979    -0.82000
O2168       O  0.53129157  0.90869110  0.23762869    -0.80300
C2169       C  0.60940664  0.98202967  0.37494911     0.87900
O2170       O  0.58001600  0.95317547  0.29242662    -0.87400
O2171       O  0.64775686  0.96227747  0.31373952    -0.87500
O2172       O  0.63893831  0.93241425  0.27241271    -0.74600
Mg2173     Mg  0.59128187  0.91476824  0.40477454     1.58000
O2174       O  0.68931691  0.96977444  0.40214124    -0.82000
H2175       H  0.49090658  0.88463358  0.36466636    -0.05700
O2176       O  0.55765047  0.87582502  0.28795971    -0.87200
H2177       H  0.57584332  0.84666009  0.26812127    -0.05500
H2178       H  0.55401951  0.97985345  0.29837994    -0.05700
C2179       C  0.56582416  0.85237569  0.28820632     0.87800
C2180       C  0.51660753  0.88665851  0.36713247     0.88400
C2181       C  0.55277076  0.95433707  0.29797929     0.88500
H2182       H  0.68454310  0.95246179  0.29643210    -0.05700
O2183       O  0.64935870  0.90673262  0.35683560    -0.74700
Mg2184     Mg  0.58318295  0.92019421  0.25777722     1.58000
H2185       H  0.61855098  0.85324739  0.36307488    -0.05700
C2186       C  0.97099665  0.78397186  0.32485274     0.93500
O2187       O  0.98609079  0.86090033  0.25864116    -0.81900
C2188       C  0.99897371  0.88403987  0.23831061     0.93500
O2189       O  0.56754455  0.86799603  0.43560003    -0.81900
Mg2190     Mg  0.66783844  0.96639746  0.35700458     1.58200
O2191       O  0.98173973  0.80612264  0.30367472    -0.80300
O2192       O  0.68382679  0.54555180  0.31543326    -0.81900
O2193       O  0.87238631  0.88658536  0.32756561    -0.87500
C2194       C  0.81163573  0.90911114  0.27138622     0.88500
Mg2195     Mg  0.85008972  0.85723680  0.36837055     1.58100
O2196       O  0.87637726  0.98151170  0.31282467    -0.87300
O2197       O  0.91620223  0.93697915  0.31052807    -0.74600
C2198       C  0.77782464  0.94173881  0.43612083     0.93500
O2199       O  0.78637184  0.83817986  0.31657701    -0.74400
O2200       O  0.77393164  0.91063513  0.43497836    -0.81900
Mg2201     Mg  0.83810282  0.86178624  0.28890406     1.58000
C2202       C  0.84028453  0.54760710  0.35239103     0.93500
O2203       O  0.88252927  0.87738858  0.25564684    -0.80200
H2204       H  0.92732491  0.01732135  0.32183094    -0.05500
C2205       C  0.77523394  0.93366199  0.34756349     0.88400
O2206       O  0.87569010  0.90924369  0.39644000    -0.74700
O2207       O  0.83856137  0.91071814  0.28186526    -0.87500
O2208       O  0.84843050  0.53878777  0.32788795    -0.80300
C2209       C  0.87444726  0.01180597  0.24377614     0.93600
C2210       C  0.90230583  0.90190776  0.23763934     0.93400
Mg2211     Mg  0.84149488  0.98149309  0.38442881     1.58000
O2212       O  0.79728364  0.96589802  0.41774445    -0.80200
O2213       O  0.89318386  0.00534535  0.35666112    -0.74400
O2214       O  0.87259580  0.98174111  0.24157995    -0.80300
O2215       O  0.84089065  0.81175611  0.29564136    -0.82000
O2216       O  0.80610252  0.85857380  0.43202644    -0.80300
C2217       C  0.90011269  0.00214071  0.32982133     0.87900
O2218       O  0.84145989  0.93226924  0.39212614    -0.87400
O2219       O  0.80741592  0.95598878  0.34600883    -0.87500
O2220       O  0.76364182  0.90618621  0.36383456    -0.74600
Mg2221     Mg  0.89096157  0.95765234  0.27722290     1.58000
O2222       O  0.85870843  0.51836277  0.26462218    -0.82000
H2223       H  0.92304868  0.90570799  0.33985094    -0.05700
O2224       O  0.80306254  0.86085710  0.36080657    -0.87200
H2225       H  0.75204240  0.82579184  0.35131445    -0.05500
H2226       H  0.88558254  0.95527292  0.41692768    -0.05700
C2227       C  0.77934518  0.84084708  0.34351003     0.87800
C2228       C  0.90452854  0.90922263  0.32646353     0.88400
C2229       C  0.86817988  0.93335189  0.40250824     0.88500
H2230       H  0.75659999  0.93725381  0.33440621    -0.05700
O2231       O  0.80352024  0.93276485  0.27740089    -0.74700
Mg2232     Mg  0.78889240  0.88504136  0.39684784     1.58000
H2233       H  0.79443867  0.88694802  0.25709118    -0.05700
C2234       C  0.83725993  0.79401786  0.31890718     0.93500
O2235       O  0.82044515  0.82272565  0.40821302    -0.81900
C2236       C  0.80360037  0.82820106  0.42881074     0.93500
O2237       O  0.90689065  0.93316451  0.23944973    -0.81900
Mg2238     Mg  0.82953652  0.98492450  0.30493050     1.58200
O2239       O  0.83273887  0.80390200  0.34442816    -0.80300
O2240       O  0.83624129  0.53040360  0.37613600    -0.81900
C2241       C  0.97418031  0.88507138  0.21773198    -0.10000
C2242       C  0.95654883  0.90195874  0.22861857    -0.03900
C2243       C  0.92399161  0.89433087  0.21710423    -0.10000
C2244       C  0.91023906  0.87182447  0.19180834     0.10900
C2245       C  0.93012541  0.85728798  0.17874614    -0.01800
C2246       C  0.96218785  0.86366166  0.19206989     0.10700
C2247       C  0.98114977  0.84829110  0.17971555    -0.11800
C2248       C  0.96930368  0.82769736  0.15391588    -0.11800
C2249       C  0.93755443  0.82093140  0.14021007     0.10700
C2250       C  0.91728778  0.83522612  0.15315723    -0.01800
C2251       C  0.87736067  0.86335253  0.17935434    -0.12000
C2252       C  0.86482397  0.84200103  0.15391234    -0.12000
C2253       C  0.88458090  0.82808938  0.14033257     0.10900
C2254       C  0.87291987  0.80769670  0.11398657    -0.10000
C2255       C  0.89373565  0.79480314  0.10095578    -0.03900
C2256       C  0.92577035  0.80087862  0.11360641    -0.10000
H2257       H  0.50576701  0.85284883  0.18958581     0.08200
H2258       H  0.98513987  0.81699660  0.14482045     0.08200
H2259       H  0.86152010  0.87382484  0.18889406     0.08400
H2260       H  0.83962495  0.83670956  0.14477341     0.08400
H2261       H  0.96586115  0.91742003  0.24905507     0.04800
H2262       H  0.88508815  0.78019795  0.08013797     0.04800
O2263       O  0.71565640  0.53638872  0.00762144    -0.87500
C2264       C  0.73312969  0.97009123  0.06073210     0.88500
Mg2265     Mg  0.68897558  0.51641444  0.96594615     1.58100
O2266       O  0.80863217  0.53600835  0.02372468    -0.87300
O2267       O  0.76657190  0.57807598  0.02607097    -0.74600
C2268       C  0.77202730  0.94517171  0.90033917     0.93500
O2269       O  0.66554879  0.94912376  0.01544044    -0.74400
O2270       O  0.74229095  0.94382954  0.90014376    -0.81900
Mg2271     Mg  0.68882117  0.99973881  0.04436577     1.58000
C2272       C  0.87873833  0.50828870  0.98430575     0.93500
O2273       O  0.70505816  0.54440197  0.07782803    -0.80200
H2274       H  0.84591493  0.58752006  0.01903884    -0.05500
C2275       C  0.76242147  0.93796922  0.98591253     0.88400
O2276       O  0.74299435  0.54402071  0.94071328    -0.74700
O2277       O  0.73631489  0.99821793  0.05130077    -0.87500
O2278       O  0.86559207  0.50858330  0.00950846    -0.80300
C2279       C  0.83229076  0.52905610  0.09231026     0.93600
C2280       C  0.72951546  0.56261789  0.09644519     0.93400
Mg2281     Mg  0.81249406  0.50732625  0.95250705     1.58000
O2282       O  0.79620352  0.96322753  0.91914742    -0.80200
O2283       O  0.83591055  0.55733498  0.98181783    -0.74400
O2284       O  0.80063590  0.52301556  0.09274613    -0.80300
O2285       O  0.63883306  0.00182672  0.03679753    -0.82000
O2286       O  0.69887923  0.98178776  0.90386733    -0.80300
C2287       C  0.83098400  0.56134559  0.00892864     0.87900
O2288       O  0.76460407  0.50851401  0.94545820    -0.87400
O2289       O  0.78526164  0.96989966  0.98883090    -0.87500
O2290       O  0.73529673  0.92795520  0.96950134    -0.74600
Mg2291     Mg  0.78360043  0.54895368  0.05874811     1.58000
O2292       O  0.84188427  0.51407998  0.07306780    -0.82000
H2293       H  0.73724652  0.58792200  0.99688630    -0.05700
O2294       O  0.69263422  0.96959481  0.97332029    -0.87200
H2295       H  0.65603375  0.91799662  0.97884123    -0.05500
H2296       H  0.79039326  0.55428383  0.92282305    -0.05700
C2297       C  0.67066672  0.94445100  0.98850173     0.87800
C2298       C  0.73933545  0.56816894  0.00976556     0.88400
C2299       C  0.76713902  0.53623849  0.93573717     0.88500
H2300       H  0.76513177  0.91818299  0.99817792    -0.05700
O2301       O  0.75671813  0.96160573  0.05554805    -0.74700
Mg2302     Mg  0.71762607  0.95734408  0.93774701     1.58000
H2303       H  0.70965257  0.95219740  0.07348519    -0.05700
C2304       C  0.62181870  0.99669419  0.01282775     0.93500
O2305       O  0.65732801  0.98956934  0.92434399    -0.81900
C2306       C  0.66698099  0.97502465  0.90477807     0.93500
O2307       O  0.75944192  0.56429179  0.09595537    -0.81900
Mg2308     Mg  0.81099315  0.98841064  0.03089871     1.58200
O2309       O  0.63421085  0.99475188  0.98770612    -0.80300
O2310       O  0.86262278  0.50511438  0.96012723    -0.81900
O2311       O  0.70037357  0.69289588  0.98900981    -0.87500
C2312       C  0.70647868  0.78803995  0.97579148     0.88500
Mg2313     Mg  0.69935308  0.67303571  0.03278452     1.58100
O2314       O  0.78357041  0.78231432  0.95866835    -0.87300
O2315       O  0.72499588  0.70071409  0.94538177    -0.74600
C2316       C  0.84040256  0.80043531  0.09790077     0.93500
O2317       O  0.66860704  0.72969204  0.03131010    -0.74400
O2318       O  0.81040007  0.77382628  0.10518489    -0.81900
Mg2319     Mg  0.66231301  0.70952663  0.98262229     1.58000
C2320       C  0.87920704  0.87103335  0.99067567     0.93500
O2321       O  0.64838928  0.68933778  0.93481173    -0.80200
H2322       H  0.81013798  0.76325431  0.93585327    -0.05500
C2323       C  0.78337425  0.82437215  0.04143512     0.88400
O2324       O  0.75881068  0.68991840  0.02866900    -0.74700
O2325       O  0.70598834  0.76044697  0.96811163    -0.87500
O2326       O  0.85527560  0.85901977  0.97090156    -0.80300
C2327       C  0.77519130  0.84077208  0.90911098     0.93600
C2328       C  0.65465676  0.70621330  0.91051799     0.93400
Mg2329     Mg  0.83216807  0.79742132  0.02705046     1.58000
O2330       O  0.84375322  0.81855625  0.07484959    -0.80200
O2331       O  0.82636669  0.77686300  0.97857463    -0.74400
O2332       O  0.74965009  0.80863305  0.90844261    -0.80300
O2333       O  0.61864572  0.65326211  0.99494780    -0.82000
O2334       O  0.74571619  0.69611150  0.09982872    -0.80300
C2335       C  0.80669863  0.77378204  0.95664684     0.87900
O2336       O  0.78847724  0.74621304  0.04130183    -0.87400
O2337       O  0.79401696  0.81371502  0.02044415    -0.87500
O2338       O  0.76966781  0.80530201  0.06439245    -0.74600
Mg2339     Mg  0.73632399  0.75633254  0.93107672     1.58000
O2340       O  0.79632243  0.85363715  0.93089328    -0.82000
H2341       H  0.70801118  0.65564160  0.96963916    -0.05700
O2342       O  0.71100293  0.72378786  0.05136131    -0.87200
H2343       H  0.68466288  0.74315132  0.07408634    -0.05500
H2344       H  0.81296993  0.71910682  0.03052887    -0.05700
C2345       C  0.68809899  0.73259383  0.05330419     0.87800
C2346       C  0.71076730  0.68177299  0.96823320     0.88400
C2347       C  0.78801751  0.71863040  0.03362167     0.88500
H2348       H  0.78566548  0.85031621  0.04022781    -0.05700
O2349       O  0.73566080  0.81666906  0.98090878    -0.74700
Mg2350     Mg  0.75862056  0.74951989  0.07871680     1.58000
H2351       H  0.68153603  0.78758778  0.97887168    -0.05700
C2352       C  0.61603961  0.63448571  0.01727151     0.93500
O2353       O  0.69725459  0.65230182  0.07817187    -0.81900
C2354       C  0.71959176  0.66415220  0.09913074     0.93500
O2355       O  0.68553030  0.73188958  0.90396156    -0.81900
Mg2356     Mg  0.79488615  0.83330650  0.97658100     1.58200
O2357       O  0.63882616  0.64696234  0.03795955    -0.80300
O2358       O  0.87636081  0.85318053  0.01374673    -0.81900
O2359       O  0.51204779  0.80802144  0.01798403    -0.87500
C2360       C  0.92007835  0.71229002  0.02627748     0.88500
Mg2361     Mg  0.53614763  0.83394792  0.97642252     1.58100
O2362       O  0.50229422  0.71692220  0.04287961    -0.87300
O2363       O  0.52372818  0.79650215  0.06209511    -0.74600
C2364       C  0.54443571  0.70911559  0.89928029     0.93500
O2365       O  0.94648015  0.77478037  0.97361272    -0.74400
O2366       O  0.54571036  0.73837491  0.89290022    -0.81900
Mg2367     Mg  0.95673558  0.79085643  0.02321666     1.58000
C2368       C  0.51212359  0.63436066  0.00198258     0.93500
O2369       O  0.96218878  0.80841641  0.07204269    -0.80200
H2370       H  0.54909114  0.73720038  0.06387609    -0.05500
C2371       C  0.96451392  0.68634746  0.95627744     0.88400
O2372       O  0.57695962  0.81558531  0.97858622    -0.74700
O2373       O  0.94737168  0.73881259  0.03540914    -0.87500
O2374       O  0.99841982  0.64351986  0.02264786    -0.80300
C2375       C  0.93177089  0.65012863  0.08709384     0.93600
C2376       C  0.94780370  0.79034543  0.09538650     0.93400
Mg2377     Mg  0.53880626  0.71002047  0.97023521     1.58000
O2378       O  0.52685337  0.69116774  0.92171582    -0.80200
O2379       O  0.55171620  0.72705802  0.02003669    -0.74400
O2380       O  0.93826801  0.68191268  0.09233802    -0.80300
O2381       O  0.96809523  0.84681992  0.01289506    -0.82000
O2382       O  0.56046917  0.82090059  0.90229576    -0.80300
C2383       C  0.53471402  0.72736329  0.04326482     0.87900
O2384       O  0.54959262  0.76251281  0.95880136    -0.87400
O2385       O  0.98475299  0.69468143  0.97774153    -0.87500
O2386       O  0.97223926  0.70707384  0.93413614    -0.74600
Mg2387     Mg  0.97838151  0.73917617  0.07300811     1.58000
O2388       O  0.94108662  0.64186005  0.06297931    -0.82000
H2389       H  0.55489720  0.84354576  0.04082053    -0.05700
O2390       O  0.99693202  0.78726120  0.95163144    -0.87200
H2391       H  0.95081511  0.76678631  0.92969137    -0.05500
H2392       H  0.60060447  0.78610254  0.97140077    -0.05700
C2393       C  0.96448022  0.77623215  0.95063989     0.87800
C2394       C  0.53127553  0.81728693  0.04011368     0.88400
C2395       C  0.57683947  0.78798038  0.96918213     0.88500
H2396       H  0.93992910  0.66084586  0.95618944    -0.05700
O2397       O  0.92043025  0.68445084  0.01821892    -0.74700
Mg2398     Mg  0.51898131  0.76362970  0.92162992     1.58000
H2399       H  0.89573236  0.71315604  0.02435851    -0.05700
C2400       C  0.98688156  0.86922364  0.99307126     0.93500
O2401       O  0.56114045  0.86121848  0.93371670    -0.81900
C2402       C  0.56905366  0.85310110  0.90882665     0.93500
O2403       O  0.94947862  0.76246604  0.10135533    -0.81900
Mg2404     Mg  0.96348885  0.66882129  0.01981257     1.58200
O2405       O  0.50505093  0.86316960  0.97424953    -0.80300
O2406       O  0.52703659  0.65408287  0.97974704    -0.81900
O2407       O  0.68036217  0.64189198  0.68014139    -0.87500
C2408       C  0.59192296  0.54986474  0.70063406     0.88500
Mg2409     Mg  0.69119041  0.66072323  0.63557245     1.58100
O2410       O  0.67376849  0.55088985  0.70733806    -0.87300
O2411       O  0.70348605  0.63337230  0.71995725    -0.74600
C2412       C  0.69683821  0.53573695  0.56576638     0.93500
O2413       O  0.60413067  0.60528703  0.64775805    -0.74400
O2414       O  0.69190659  0.56102130  0.55854052    -0.81900
Mg2415     Mg  0.62803360  0.62686205  0.69458386     1.58000
C2416       C  0.67608328  0.96372516  0.66927648     0.93500
O2417       O  0.64924336  0.64824384  0.74024259    -0.80200
H2418       H  0.72154181  0.56833276  0.72581617    -0.05500
C2419       C  0.62039295  0.50927518  0.62793886     0.88400
O2420       O  0.73416189  0.64449346  0.63229881    -0.74700
O2421       O  0.62118564  0.57630084  0.70616849    -0.87500
O2422       O  0.66071113  0.97173834  0.68947050    -0.80300
C2423       C  0.60773599  0.99518311  0.75988461     0.93600
C2424       C  0.63421938  0.63026029  0.76329419     0.93400
Mg2425     Mg  0.69804451  0.53691619  0.63483052     1.58000
O2426       O  0.68080395  0.51653525  0.58807158    -0.80200
O2427       O  0.71948208  0.55667379  0.68188967    -0.74400
O2428       O  0.61916935  0.52833679  0.76203819    -0.80300
O2429       O  0.63802132  0.68168600  0.68421143    -0.82000
O2430       O  0.70787359  0.63620106  0.56880548    -0.80300
C2431       C  0.70535912  0.55875006  0.70605976     0.87900
O2432       O  0.70353187  0.58737812  0.62346225    -0.87400
O2433       O  0.64422914  0.52030912  0.64677382    -0.87500
O2434       O  0.62294536  0.52808154  0.60556522    -0.74600
Mg2435     Mg  0.65920278  0.57913642  0.73857405     1.58000
O2436       O  0.61282410  0.98103161  0.73701580    -0.82000
H2437       H  0.72973503  0.67726947  0.69379765    -0.05700
O2438       O  0.64847501  0.60947426  0.62101091    -0.87200
H2439       H  0.59940902  0.59006004  0.60439285    -0.05500
H2440       H  0.75681885  0.61377774  0.62644994    -0.05700
C2441       C  0.61675616  0.60109811  0.62338497     0.87800
C2442       C  0.70549584  0.65206791  0.69763592     0.88400
C2443       C  0.73252573  0.61491246  0.62725415     0.88500
H2444       H  0.59683509  0.48322695  0.63064013    -0.05700
O2445       O  0.58929229  0.52050228  0.69301949    -0.74700
Mg2446     Mg  0.66686587  0.58378453  0.58967337     1.58000
H2447       H  0.56826893  0.55215736  0.70127414    -0.05700
C2448       C  0.64807465  0.69850306  0.65998079     0.93500
O2449       O  0.70202926  0.67980297  0.58892153    -0.81900
C2450       C  0.71404885  0.66799339  0.56898284     0.93500
O2451       O  0.63893215  0.60497885  0.77082197    -0.81900
Mg2452     Mg  0.62937837  0.50109876  0.69089715     1.58200
O2453       O  0.65600302  0.68602622  0.63753928    -0.80300
O2454       O  0.68973658  0.98267114  0.64629141    -0.81900
C2455       C  0.62421395  0.69764440  0.89093818    -0.10000
C2456       C  0.59894072  0.70606508  0.90143476    -0.03900
C2457       C  0.56889017  0.69897732  0.88480558    -0.10000
C2458       C  0.56264428  0.68065268  0.85727072     0.10900
C2459       C  0.58848912  0.67248699  0.84616158    -0.01800
C2460       C  0.61984624  0.68200015  0.86271975     0.10700
C2461       C  0.64579204  0.67516687  0.85088996    -0.11800
C2462       C  0.64150321  0.65980852  0.82303248    -0.11800
C2463       C  0.61043699  0.64937213  0.80657079     0.10700
C2464       C  0.58312067  0.65474982  0.81843533    -0.01800
C2465       C  0.53138189  0.66973634  0.84079077    -0.12000
C2466       C  0.52548176  0.65100511  0.81393214    -0.12000
C2467       C  0.55101149  0.64324096  0.80228514     0.10900
C2468       C  0.54637276  0.62561003  0.77445562    -0.10000
C2469       C  0.57447364  0.62222431  0.76281744    -0.03900
C2470       C  0.60633466  0.63434968  0.77817307    -0.10000
H2471       H  0.66992259  0.68205505  0.86290804     0.08200
H2472       H  0.66269229  0.65587466  0.81461865     0.08200
H2473       H  0.51112003  0.67534709  0.84874922     0.08400
H2474       H  0.00095074  0.64304861  0.80213621     0.08400
H2475       H  0.60293210  0.71874943  0.92304678     0.04800
H2476       H  0.57172455  0.61036149  0.74097647     0.04800
C2477       C  0.58997993  0.88351030  0.88828689    -0.10000
C2478       C  0.62175626  0.91169629  0.89995881    -0.03900
C2479       C  0.63940795  0.94554728  0.88695773    -0.10000
C2480       C  0.62664446  0.95143049  0.86042930     0.10900
C2481       C  0.59403270  0.92389168  0.84848126    -0.01800
C2482       C  0.57546023  0.88972707  0.86225907     0.10700
C2483       C  0.54249832  0.86362294  0.85018473    -0.11800
C2484       C  0.52798314  0.87103890  0.82536610    -0.11800
C2485       C  0.54575826  0.90490386  0.81197737     0.10700
C2486       C  0.57935506  0.93127805  0.82340463    -0.01800
C2487       C  0.64547759  0.98446426  0.84589269    -0.12000
C2488       C  0.63238895  0.99062909  0.82001942    -0.12000
C2489       C  0.59911804  0.96471067  0.80888582     0.10900
C2490       C  0.58515522  0.97111233  0.78323238    -0.10000
C2491       C  0.55047390  0.94736973  0.77477957    -0.03900
C2492       C  0.53136522  0.91372184  0.78742514    -0.10000
H2493       H  0.52757664  0.83735547  0.85999729     0.08200
H2494       H  0.00243214  0.85033836  0.81699938     0.08200
H2495       H  0.67078639  0.00564261  0.85423518     0.08400
H2496       H  0.64790497  0.51633501  0.80936106     0.08400
H2497       H  0.63149969  0.90801488  0.92096091     0.04800
H2498       H  0.54048123  0.95295882  0.75468734     0.04800
O2499       O  0.85894315  0.53900869  0.68521444    -0.87500
C2500       C  0.95339826  0.54196699  0.69254567     0.88500
Mg2501     Mg  0.83333114  0.53660565  0.64338600     1.58100
O2502       O  0.95007745  0.62010557  0.71058944    -0.87300
O2503       O  0.87031648  0.56205709  0.72970788    -0.74600
C2504       C  0.95816760  0.67242072  0.56731258     0.93500
O2505       O  0.89198366  0.50693723  0.64028196    -0.74400
O2506       O  0.92899766  0.64374873  0.56096764    -0.81900
Mg2507     Mg  0.87556203  0.50059350  0.68996148     1.58000
C2508       C  0.53259061  0.71298222  0.67112238     0.93500
O2509       O  0.85777861  0.98767983  0.73880677    -0.80200
H2510       H  0.92972785  0.64618673  0.73237071    -0.05500
C2511       C  0.98082331  0.61480807  0.62282822     0.88400
O2512       O  0.85106348  0.59598655  0.64619728    -0.74700
O2513       O  0.92746519  0.54306982  0.70248953    -0.87500
O2514       O  0.52397493  0.68934858  0.69079131    -0.80300
C2515       C  0.51653915  0.61638345  0.75373897     0.93600
C2516       C  0.87582422  0.49180171  0.76213007     0.93400
Mg2517     Mg  0.95672701  0.66452940  0.63892146     1.58000
O2518       O  0.97589918  0.67400941  0.59014572    -0.80200
O2519       O  0.93962864  0.65916422  0.68869532    -0.74400
O2520       O  0.98450586  0.59173046  0.75951916    -0.80300
O2521       O  0.81995222  0.95605931  0.67937624    -0.82000
O2522       O  0.84657600  0.57390585  0.56985115    -0.80300
C2523       C  0.93958549  0.64190800  0.71155081     0.87900
O2524       O  0.90430374  0.62261502  0.62667111    -0.87400
O2525       O  0.97192229  0.62557125  0.64487558    -0.87500
O2526       O  0.96036861  0.60200443  0.60050452    -0.74600
Mg2527     Mg  0.92744797  0.57408377  0.74037595     1.58000
O2528       O  0.52494122  0.63297615  0.72930417    -0.82000
H2529       H  0.82359885  0.54636285  0.70829955    -0.05700
O2530       O  0.88041280  0.54527242  0.61875579    -0.87200
H2531       H  0.90092974  0.51966918  0.59657099    -0.05500
H2532       H  0.88030672  0.64951585  0.63954762    -0.05700
C2533       C  0.89123125  0.52379852  0.61753116     0.87800
C2534       C  0.84969804  0.54896225  0.70754302     0.88400
C2535       C  0.87864648  0.62391482  0.63708216     0.88500
H2536       H  0.00655710  0.61656896  0.62239956    -0.05700
O2537       O  0.98104894  0.57003506  0.68378098    -0.74700
Mg2538     Mg  0.90375724  0.59115059  0.58900340     1.58000
H2539       H  0.95197026  0.51646149  0.69023385    -0.05700
C2540       C  0.79850734  0.95211672  0.65888150     0.93500
O2541       O  0.80616823  0.53319985  0.60055806    -0.81900
C2542       C  0.81451131  0.54935832  0.57589036     0.93500
O2543       O  0.90370768  0.52175876  0.76822289    -0.81900
Mg2544     Mg  0.99765493  0.62907609  0.68664457     1.58200
O2545       O  0.80548554  0.97614912  0.63990618    -0.80300
O2546       O  0.51252818  0.70877676  0.64943655    -0.81900
O2547       O  0.97476984  0.84453012  0.65535704    -0.87500
C2548       C  0.88087617  0.75403089  0.64067576     0.88500
Mg2549     Mg  0.99496751  0.86151536  0.69975483     1.58100
O2550       O  0.88468956  0.83633184  0.62575773    -0.87300
O2551       O  0.96648743  0.86161972  0.61233213    -0.74600
C2552       C  0.86964621  0.87553532  0.76623275     0.93500
O2553       O  0.93851398  0.77390146  0.69485058    -0.74400
O2554       O  0.89578730  0.87183798  0.77360349    -0.81900
Mg2555     Mg  0.95905244  0.79019902  0.64631520     1.58000
C2556       C  0.79597451  0.84105588  0.66083503     0.93500
O2557       O  0.97973393  0.80046661  0.59857473    -0.80200
H2558       H  0.90356879  0.88254239  0.60411549    -0.05500
C2559       C  0.84360526  0.79329250  0.70907156     0.88400
O2560       O  0.97906058  0.90484469  0.69855589    -0.74700
O2561       O  0.90786162  0.78175049  0.63280634    -0.87500
O2562       O  0.80626152  0.82730550  0.64099775    -0.80300
C2563       C  0.82618568  0.76862942  0.57589822     0.93600
C2564       C  0.96182255  0.78677879  0.57510060     0.93400
Mg2565     Mg  0.87122603  0.86937040  0.69577437     1.58000
O2566       O  0.85094009  0.85953764  0.74360273    -0.80200
O2567       O  0.89110277  0.88460419  0.64737670    -0.74400
O2568       O  0.85869339  0.77710994  0.57358297    -0.80300
O2569       O  0.51540248  0.80349278  0.65744691    -0.82000
O2570       O  0.97260302  0.88316277  0.76795733    -0.80300
C2571       C  0.89337116  0.86818194  0.62469981     0.87900
O2572       O  0.92241611  0.87688260  0.70954623    -0.87400
O2573       O  0.85465847  0.81460755  0.68826834    -0.87500
O2574       O  0.86259619  0.79859607  0.73193420    -0.74600
Mg2575     Mg  0.91106916  0.81641057  0.59686050     1.58000
O2576       O  0.81371957  0.77530582  0.59904749    -0.82000
H2577       H  0.01113398  0.89082812  0.63707382    -0.05700
O2578       O  0.94397199  0.82127278  0.71748796    -0.87200
H2579       H  0.92418755  0.77417949  0.73793217    -0.05500
H2580       H  0.94988717  0.92945845  0.70181752    -0.05700
C2581       C  0.93507716  0.78933390  0.71778179     0.87800
C2582       C  0.98538410  0.86670346  0.63521046     0.88400
C2583       C  0.95020502  0.90478238  0.70340322     0.88500
H2584       H  0.81736941  0.76970629  0.70779041    -0.05700
O2585       O  0.85229913  0.75371625  0.64723004    -0.74700
Mg2586     Mg  0.91882454  0.84321851  0.74626561     1.58000
H2587       H  0.88195428  0.72981339  0.64289977    -0.05700
C2588       C  0.53391117  0.81853334  0.68028560     0.93500
O2589       O  0.51538541  0.87733935  0.74593647    -0.81900
C2590       C  0.50404667  0.88796487  0.76736197     0.93500
O2591       O  0.93550192  0.79048396  0.56858185    -0.81900
Mg2592     Mg  0.83451502  0.79513415  0.64454113     1.58200
O2593       O  0.52100384  0.82709596  0.70202318    -0.80300
O2594       O  0.81523941  0.85749852  0.68313239    -0.81900
C2595       C  0.77804018  0.86591402  0.88636978    -0.10000
C2596       C  0.76484324  0.88760114  0.89517216    -0.03900
C2597       C  0.77670349  0.92042161  0.88195280    -0.10000
C2598       C  0.79949979  0.93086468  0.85705600     0.10900
C2599       C  0.81052449  0.90739701  0.84590036    -0.01800
C2600       C  0.80016560  0.87481726  0.86088939     0.10700
C2601       C  0.81224422  0.85237333  0.85010845    -0.11800
C2602       C  0.83276627  0.86096768  0.82421029    -0.11800
C2603       C  0.84305407  0.89298995  0.80898173     0.10700
C2604       C  0.83290548  0.91710740  0.82048929    -0.01800
C2605       C  0.81158297  0.96398800  0.84326607    -0.12000
C2606       C  0.83361161  0.97363172  0.81825277    -0.13800
C2607       C  0.84434284  0.95050290  0.80633150     0.10900
C2608       C  0.86549373  0.95936378  0.78027925    -0.10000
C2609       C  0.87357152  0.93421027  0.76838362    -0.03900
C2610       C  0.86259262  0.90128185  0.78221390    -0.10000
H2611       H  0.80490432  0.82749460  0.86113857     0.08200
H2612       H  0.84057616  0.84231358  0.81620772     0.08200
H2613       H  0.80355258  0.98239844  0.85150381     0.08400
H2614       H  0.84189950  0.49921608  0.80812945     0.08400
H2615       H  0.74884643  0.88106443  0.91535434     0.04800
H2616       H  0.88817939  0.94009946  0.74756657     0.04800
C2617       C  0.53788022  0.80635974  0.44505080    -0.10000
C2618       C  0.55094203  0.78657112  0.43091149    -0.03900
C2619       C  0.54713808  0.75555396  0.44341421    -0.10000
C2620       C  0.52807954  0.74291948  0.47072933     0.10900
C2621       C  0.51603023  0.76386168  0.48580950    -0.01800
C2622       C  0.52203064  0.79631720  0.47322749     0.10700
C2623       C  0.51156030  0.81765454  0.48880690    -0.11800
C2624       C  0.99523561  0.80732091  0.51637245    -0.11800
C2625       C  0.98743394  0.77456636  0.52873116     0.10700
C2626       C  0.99731157  0.75216926  0.51319878    -0.01800
C2627       C  0.52029519  0.71011079  0.48326136    -0.12000
C2628       C  0.00048286  0.69781490  0.50972441    -0.12000
C2629       C  0.98859936  0.71833771  0.52499801     0.10900
C2630       C  0.96877357  0.70667304  0.55196547    -0.10000
C2631       C  0.96090440  0.73010759  0.56743322    -0.03900
C2632       C  0.97032472  0.76385068  0.55644245    -0.10000
H2633       H  0.51619393  0.84274749  0.47990782     0.08200
H2634       H  0.98818338  0.82501133  0.52767233     0.08200
H2635       H  0.52910205  0.69352832  0.47242972     0.08400
H2636       H  0.99474366  0.67221437  0.51831763     0.08400
H2637       H  0.56365279  0.79510646  0.40930567     0.04800
H2638       H  0.94717884  0.72192670  0.58866521     0.04800
C2639       C  0.77580828  0.79681721  0.44531429    -0.10000
C2640       C  0.74281144  0.77605031  0.43100825    -0.03900
C2641       C  0.71562961  0.74358175  0.44272514    -0.10000
C2642       C  0.72165268  0.73139296  0.46977686     0.10900
C2643       C  0.75502803  0.75197045  0.48449739    -0.01800
C2644       C  0.78198301  0.78500378  0.47251115     0.10700
C2645       C  0.81432461  0.80507566  0.48793152    -0.11800
C2646       C  0.82031331  0.79288208  0.51465316    -0.11800
C2647       C  0.79458335  0.75975056  0.52634175     0.10700
C2648       C  0.76165729  0.73914216  0.51109554    -0.01800
C2649       C  0.69534685  0.69911683  0.48239909    -0.12000
C2650       C  0.70163662  0.68699246  0.50890051    -0.12000
C2651       C  0.73468610  0.70640067  0.52325455     0.10900
C2652       C  0.74160836  0.69419629  0.54975165    -0.10000
C2653       C  0.77466247  0.71309999  0.56317493    -0.03900
C2654       C  0.80023038  0.74653532  0.55316155    -0.10000
H2655       H  0.83517120  0.83050143  0.47947597     0.08200
H2656       H  0.84551607  0.80921798  0.52583038     0.08200
H2657       H  0.66963344  0.68307030  0.47189233     0.08400
H2658       H  0.68066757  0.66194319  0.51786153     0.08400
H2659       H  0.73868810  0.78473594  0.40965789     0.04800
H2660       H  0.77878168  0.70374942  0.58427362     0.04800
C2661       C  0.69929536  0.95014352  0.44693353    -0.10000
C2662       C  0.72117146  0.93681488  0.43926227    -0.03900
C2663       C  0.75310018  0.94797003  0.45394384    -0.10000
C2664       C  0.76237886  0.97170069  0.47872887     0.10900
C2665       C  0.73769635  0.98199431  0.48867962    -0.01800
C2666       C  0.70580777  0.97083978  0.47265970     0.10700
C2667       C  0.68148199  0.98107031  0.48231144    -0.11800
C2668       C  0.68764018  0.50088024  0.50812185    -0.11800
C2669       C  0.71917157  0.51261562  0.52426260     0.10700
C2670       C  0.74525114  0.50447275  0.51390184    -0.01800
C2671       C  0.79498478  0.98536411  0.49382842    -0.12000
C2672       C  0.80274896  0.50803117  0.51863529    -0.12000
C2673       C  0.77816010  0.51781124  0.52918473     0.10900
C2674       C  0.78458958  0.53945562  0.55504353    -0.10000
C2675       C  0.75750016  0.54532867  0.56554309    -0.03900
C2676       C  0.72490876  0.53169399  0.55088331    -0.10000
H2677       H  0.65691320  0.97283208  0.47045963     0.08200
H2678       H  0.66757156  0.50719522  0.51519643     0.08200
H2679       H  0.81444008  0.97820569  0.48671865     0.08400
H2680       H  0.82802562  0.51757727  0.52971024     0.08400
H2681       H  0.71543778  0.92109671  0.41898283     0.04800
H2682       H  0.76131738  0.55967993  0.58630055     0.04800
C2683       C  0.49831126  0.96875703  0.99788330     0.03100
C2684       C  0.53055147  0.49997178  0.00567346     0.03100
C2685       C  0.53204341  0.53328265  0.00748000     0.03100
C2686       C  0.50143522  0.53518402  0.00095510     0.03100
C2687       C  0.96924166  0.50400146  0.99326846     0.03100
C2688       C  0.96744848  0.97058698  0.99247654     0.03100
C2689       C  0.83165100  0.63554155  0.34042754     0.03100
C2690       C  0.86612159  0.66496342  0.33589100     0.03100
C2691       C  0.87056811  0.69821213  0.32745019     0.03100
C2692       C  0.84041615  0.70215076  0.32368252     0.03100
C2693       C  0.80584936  0.67246783  0.32722177     0.03100
C2694       C  0.80144210  0.63928145  0.33600159     0.03100
C2695       C  0.66827164  0.86621729  0.66957455     0.03100
C2696       C  0.63465463  0.83467925  0.67256850     0.03100
C2697       C  0.63219638  0.80124073  0.66932262     0.03100
C2698       C  0.66298211  0.79891058  0.66368923     0.03100
C2699       C  0.69678444  0.83041275  0.66181969     0.03100
C2700       C  0.69910454  0.86389242  0.66399707     0.03100
C2701       C  0.57091976  0.82790270  0.68065028    -0.12500
C2702       C  0.60164753  0.83505729  0.67796451    -0.14000
C2703       C  0.76032393  0.83545364  0.65881742    -0.12500
C2704       C  0.72998446  0.82981255  0.65905947    -0.14000
C2705       C  0.76386112  0.92074735  0.65856150    -0.12500
C2706       C  0.73384775  0.89583936  0.66064592    -0.14000
C2707       C  0.56725001  0.74423774  0.67240158    -0.12500
C2708       C  0.59729439  0.76924194  0.67144821    -0.14000
C2709       C  0.65907463  0.76396751  0.66008122    -0.12500
C2710       C  0.65293969  0.73364371  0.65862168    -0.14000
C2711       C  0.67532692  0.93048232  0.67157788    -0.12500
C2712       C  0.67157065  0.90102285  0.67157104    -0.14000
C2713       C  0.50375761  0.56978784  0.00213054    -0.12500
C2714       C  0.50855060  0.59968633  0.00293679    -0.14000
C2715       C  0.99594113  0.93413330  0.99550028    -0.12500
C2716       C  0.99053240  0.90402156  0.99344092    -0.14000
C2717       C  0.56469194  0.56656481  0.01475192    -0.12500
C2718       C  0.58810629  0.59742375  0.01795082    -0.14000
C2719       C  0.93396693  0.93718142  0.98809052    -0.12500
C2720       C  0.90914244  0.90678126  0.98767951    -0.14000
C2721       C  0.91193331  0.50895005  0.98388421    -0.12500
C2722       C  0.93808280  0.50652261  0.98699574    -0.14000
C2723       C  0.58839817  0.99554944  0.01341314    -0.12500
C2724       C  0.56196542  0.99761990  0.01102604    -0.14000
C2725       C  0.82873479  0.60169155  0.34834671    -0.12500
C2726       C  0.83364148  0.57695874  0.35231546    -0.14000
C2727       C  0.84374447  0.73668703  0.31834770    -0.12500
C2728       C  0.84064488  0.76277419  0.31694829    -0.14000
C2729       C  0.73606096  0.58384834  0.34053248    -0.12500
C2730       C  0.76585461  0.60918998  0.33969418    -0.14000
C2731       C  0.93660578  0.75255398  0.32272800    -0.12500
C2732       C  0.90627703  0.72815501  0.32365434    -0.14000
C2733       C  0.75028975  0.68175935  0.31859798    -0.12500
C2734       C  0.77500813  0.67673760  0.32216452    -0.14000
C2735       C  0.92185794  0.65565571  0.34249145    -0.12500
C2736       C  0.89695988  0.66051750  0.33989993    -0.14000
loop_ 
_geom_bond_atom_site_label_1 
_geom_bond_atom_site_label_2 
_geom_bond_distance 
_geom_bond_site_symmetry_2 
_ccdc_geom_bond_type 
O1           Mg3   2.174       .  S
O1           Mg9   2.173       .  S
O1           C36   1.232       .  S
C2           O15   1.234       .  S
C2           O39   1.269       .  A
C2           H41   1.081       .  S
Mg3          O32   2.165       .  S
Mg3          O14   2.295       .  S
Mg3        O1415   2.285   1_455  S
Mg3        O1411   2.263   1_455  S
O4          Mg46   2.160       .  S
O4          Mg29   2.176       .  S
O4           C25   1.236       .  S
O5           C36   1.268       .  A
O5          Mg29   2.302       .  S
C6            O8   1.280       .  A
C6           O20   1.270       .  A
C6           C49   1.483       .  S
O7           C35   1.271       .  A
O7           Mg9   2.304       .  S
O8          Mg40   2.333       .  S
Mg9          O15   2.168       .  S
Mg9          O11   2.279       .  S
Mg9        O1391   2.275   1_455  S
C10          O48   1.268       .  A
C10          O16   1.269       .  A
C10         C681   1.442       .  S
O11          C18   1.271       .  A
H12          C25   1.081       .  S
C13          O27   1.235       .  S
C13          O28   1.271       .  A
C13          H38   1.081       .  S
O14          C37   1.268       .  A
O15         Mg29   2.184       .  S
O16         Mg46   2.292       .  S
C17          O30   1.271       .  A
C17          O22   1.280       .  A
C17         C589   1.490       .  S
C18          O45   1.279       .  A
C18         C567   1.479       .  S
Mg19         O26   2.162       .  S
Mg19         O27   2.164       .  S
Mg19         O20   2.273       .  S
Mg19         O21   2.316       .  S
Mg19         O48   2.277       .  S
O21          C25   1.273       .  A
O22         Mg29   2.351       .  S
O23          C42   1.269       .  A
O23       Mg1377   2.275       .  S
O24          C44   1.285   1_455  A
O24         Mg40   2.376       .  S
O26         Mg40   2.180       .  S
O26          C37   1.233       .  S
O27         Mg46   2.184       .  S
O28         Mg40   2.316       .  S
Mg29         O45   2.322       .  S
O30         Mg46   2.266       .  S
H31          C36   1.081       .  S
O32         Mg40   2.166       .  S
O32          C35   1.236       .  S
H33          C35   1.081   1_655  S
H34          C37   1.081       .  S
O39         Mg46   2.302       .  S
C42          O47   1.269       .  A
C42         C683   1.438       .  S
O43        C1412   1.271       .  A
O43       Mg1371   2.263       .  S
C44        O1411   1.271       .  A
C44        C1441   1.490       .  S
O47       Mg1371   2.285       .  S
C49          C50   1.397       .  A
C49          C54   1.426       .  A
C50          H69   1.086       .  S
C50          C51   1.399       .  A
C51         C782   1.462   1_545  S
C51          C52   1.402       .  A
C52          C53   1.417       .  A
C52          C59   1.406       .  A
C53          C54   1.424       .  A
C53          C58   1.419       .  A
C54          C55   1.409       .  A
C55          H65   1.083       .  S
C55          C56   1.404       .  A
C56          H66   1.083       .  S
C56          C57   1.407       .  A
C57          C58   1.418       .  A
C57          C64   1.420       .  A
C58          C61   1.419       .  A
C59         H751   1.083   1_545  S
C59          C60   1.388       .  A
C60          H68   1.083       .  S
C60          C61   1.402       .  A
C61          C62   1.406       .  A
C62         C228   1.457       .  S
C62          C63   1.383       .  A
C63          H70   1.088       .  S
C63          C64   1.390       .  A
C64         C302   1.459       .  S
H67         C743   1.083       .  S
C71         C841   1.476       .  S
C71          C72   1.398       .  A
C71          C76   1.401       .  A
C72          H91   1.086       .  S
C72          C73   1.405       .  A
C73        C1412   1.490       .  S
C73          C74   1.424       .  A
C74          C75   1.426       .  A
C74          C81   1.407       .  A
C75          C76   1.423       .  A
C75          C80   1.419       .  A
C76          C77   1.403       .  A
C77         H771   1.083   1_545  S
C77          C78   1.385       .  A
C78          H88   1.083       .  S
C78          C79   1.402       .  A
C79          C80   1.421       .  A
C79          C86   1.400       .  A
C80          C83   1.424       .  A
C81        H1457   1.083       .  S
C81          C82   1.407       .  A
C82          H90   1.082       .  S
C82          C83   1.410       .  A
C83          C84   1.427       .  A
C84         C323   1.484       .  S
C84          C85   1.400       .  A
C85          H92   1.086       .  S
C85          C86   1.393       .  A
C86         C227   1.468       .  S
H87         C761   1.083       .  S
H89        C1449   1.083       .  S
O93         Mg95   2.124       .  S
O93        Mg101   2.123       .  S
O93         C128   1.236       .  S
C94         O107   1.233       .  S
C94         O131   1.266       .  A
C94         H133   1.081       .  S
Mg95        O124   2.158       .  S
Mg95        O106   2.299       .  S
Mg95       O1507   2.282   1_455  S
Mg95       O1503   2.221   1_455  S
O96        Mg138   2.169       .  S
O96        Mg121   2.146       .  S
O96         C117   1.236       .  S
O97         C128   1.271       .  A
O97        Mg121   2.308       .  S
C98         O100   1.263       .  A
C98         O796   1.267       .  A
C98         C735   1.462       .  S
O99         C127   1.273       .  A
O99        Mg101   2.319       .  S
O100       Mg132   2.244       .  S
Mg101       O107   2.130       .  S
Mg101       O103   2.265       .  S
Mg101      O1483   2.246   1_455  S
C102        O140   1.268       .  A
C102        O108   1.270       .  A
C102        C677   1.427       .  S
O103        C110   1.267       .  A
H104        C117   1.081       .  S
C105        O119   1.235       .  S
C105        O120   1.270       .  A
C105        H130   1.081       .  S
O106        C129   1.267       .  A
O107       Mg121   2.164       .  S
O108       Mg822   2.284   1_545  S
C109        O122   1.267       .  A
C109        O114   1.263       .  A
C109        C609   1.450       .  S
C110        O137   1.263       .  A
C110        C565   1.463       .  S
Mg111       O118   2.134       .  S
Mg111       O119   2.128       .  S
Mg111       O113   2.304       .  S
Mg111       O796   2.263       .  S
Mg111       O824   2.246       .  S
O112        C782   1.267   1_545  A
O112       Mg795   2.263   1_545  S
O113        C117   1.271       .  A
O114       Mg121   2.245       .  S
O115        C134   1.266       .  A
O115      Mg1469   2.246       .  S
O116       C1504   1.263   1_455  A
O116       Mg132   2.246       .  S
O118       Mg132   2.160       .  S
O118        C129   1.233       .  S
O119       Mg138   2.113       .  S
O120       Mg132   2.303       .  S
Mg121       O137   2.241       .  S
O122       Mg138   2.219       .  S
H123        C128   1.081   1_655  S
O124       Mg132   2.156       .  S
O124        C127   1.236       .  S
H125        C127   1.081       .  S
H126        C129   1.081       .  S
O131       Mg138   2.291       .  S
C134        O139   1.268       .  A
C134        C679   1.427       .  S
O135        C136   1.265       .  A
O135      Mg1463   2.221       .  S
C136       O1484   1.263       .  A
C136        C189   1.446       .  S
Mg138       O792   2.284       .  S
O139      Mg1463   2.282       .  S
O140       Mg795   2.246   1_545  S
O141       Mg143   2.169       .  S
O141       Mg149   2.192       .  S
O141        C176   1.236       .  S
C142        O155   1.234       .  S
C142        O179   1.270       .  A
C142        H181   1.081       .  S
Mg143       O172   2.157       .  S
Mg143       O187   2.302       .  S
Mg143       O183   2.276       .  S
Mg143       O154   2.317       .  S
O144       Mg186   2.146       .  S
O144       Mg169   2.160       .  S
O144        C165   1.232       .  S
O145        C176   1.271       .  A
O145       Mg169   2.305       .  S
C146        O148   1.274       .  A
C146        O160   1.267       .  A
C146        C611   1.465       .  S
O147        C175   1.268       .  A
O147       Mg149   2.301       .  S
O148       Mg180   2.300       .  S
Mg149       O155   2.140       .  S
Mg149       O163   2.259       .  S
Mg149       O151   2.252       .  S
C150        O188   1.270       .  A
C150        O156   1.271       .  A
C150        C674   1.442       .  S
O151        C158   1.267       .  A
H152        C165   1.081       .  S
C153        O167   1.235       .  S
C153        O168   1.271       .  A
C153        H178   1.081       .  S
O154        C177   1.271       .  A
O155       Mg169   2.163       .  S
O156       Mg870   2.289   1_545  S
C157        O162   1.269       .  A
C157        O854   1.270       .  A
C157        C755   1.476       .  S
C158        O185   1.270       .  A
C158        C191   1.465       .  S
Mg159       O166   2.167       .  S
Mg159       O167   2.184       .  S
Mg159       O160   2.248       .  S
Mg159       O161   2.302       .  S
Mg159       O872   2.282       .  S
O161        C165   1.268       .  A
O162       Mg169   2.282       .  S
O163        C182   1.267       .  A
O164        C184   1.274       .  A
O164       Mg180   2.306       .  S
O166       Mg180   2.172       .  S
O166        C177   1.234       .  S
O167       Mg186   2.172       .  S
O168       Mg180   2.309       .  S
Mg169       O185   2.281       .  S
O170        C841   1.270       .  A
O170       Mg870   2.271   1_545  S
H171        C176   1.081       .  S
O172       Mg180   2.174       .  S
O172        C175   1.233       .  S
H173        C175   1.081       .  S
H174        C177   1.081       .  S
O179       Mg186   2.308       .  S
C182        O187   1.272       .  A
C182        C676   1.438       .  S
O183        C184   1.271       .  A
C184        C587   1.484       .  S
Mg186       O840   2.289       .  S
Mg186       O854   2.271       .  S
O188       Mg843   2.282   1_545  S
C189        C190   1.386       .  A
C189        C194   1.405       .  A
C190        H209   1.088       .  S
C190        C191   1.384       .  A
C191        C192   1.419       .  A
C192        C193   1.424       .  A
C192        C199   1.403       .  A
C193        C194   1.414       .  A
C193        C198   1.418       .  A
C194        C195   1.406       .  A
C195       H1573   1.083       .  S
C195        C196   1.394       .  A
C196        H206   1.083       .  S
C196        C197   1.404       .  A
C197        C198   1.428       .  A
C197        C204   1.414       .  A
C198        C201   1.419       .  A
C199        H207   1.083       .  S
C199        C200   1.397       .  A
C200        H208   1.083       .  S
C200        C201   1.409       .  A
C201        C202   1.410       .  A
C202        C264   1.478       .  S
C202        C203   1.405       .  A
C203        H210   1.086       .  S
C203        C204   1.404       .  A
C204        C324   1.491       .  S
H205       C1563   1.083   1_455  S
O211       Mg213   2.149   1_554  S
O211       Mg903   2.183   1_545  S
O211        C246   1.238       .  S
C212        O225   1.236       .  S
C212        O249   1.271       .  A
C212        H251   1.081       .  S
Mg213       O926   2.146   1_545  S
Mg213       O224   2.316       .  S
Mg213       O941   2.283   1_545  S
Mg213       O937   2.270   1_545  S
O214       Mg239   2.136       .  S
O214       Mg940   2.147   1_545  S
O214        C235   1.232       .  S
O215        C246   1.273       .  A
O215       Mg239   2.305       .  S
C216        O218   1.263       .  A
C216        O230   1.268       .  A
C216        C545   1.444       .  S
O217        C245   1.266   1_554  A
O217       Mg219   2.296       .  S
O218       Mg250   2.225       .  S
Mg219       O225   2.123       .  S
Mg219       O895   2.183       .  S
Mg219       O233   2.248       .  S
Mg219       O905   2.262       .  S
C220        O258   1.269       .  A
C220        O226   1.270   1_556  A
C220        C669   1.427       .  S
O221        C228   1.270       .  A
O221       Mg903   2.262   1_545  S
H222        C235   1.081       .  S
C223        O237   1.237       .  S
C223        O238   1.271       .  A
C223        H248   1.081       .  S
O224        C247   1.272       .  A
O225       Mg923   2.145       .  S
O226       Mg940   2.278   1_545  S
C227        O240   1.268       .  A
C227        O232   1.262       .  A
C228        O255   1.265       .  A
Mg229       O236   2.133       .  S
Mg229       O921   2.188   1_545  S
Mg229       O231   2.287       .  S
Mg229       O258   2.257       .  S
Mg229       O914   2.241   1_545  S
O230       Mg913   2.241       .  S
O231        C235   1.265   1_556  A
O232       Mg239   2.249       .  S
O233        C252   1.268       .  A
O234        C254   1.263       .  A
O234       Mg250   2.247       .  S
O236       Mg934   2.151   1_545  S
O236        C247   1.236       .  S
O237       Mg256   2.143   1_556  S
O237       Mg913   2.188       .  S
O238       Mg250   2.304       .  S
Mg239       O909   2.145   1_545  S
Mg239       O255   2.239       .  S
O240       Mg940   2.269   1_545  S
H241        C246   1.081   1_556  S
O242       Mg250   2.138       .  S
O242       Mg897   2.146       .  S
O242        C245   1.232       .  S
H243        C245   1.081       .  S
H244        C247   1.081       .  S
O249       Mg256   2.312       .  S
Mg250       O920   2.151       .  S
C252        O257   1.270   1_554  A
C252        C671   1.427       .  S
O253        C254   1.267       .  A
O253       Mg897   2.270       .  S
C254        C427   1.471       .  S
Mg256       O898   2.147       .  S
Mg256       O910   2.278       .  S
Mg256       O924   2.269       .  S
O257       Mg897   2.283       .  S
O259       Mg261   2.152   1_556  S
O259       Mg267   2.135       .  S
O259        C294   1.233       .  S
C260        O273   1.234       .  S
C260        O297   1.268       .  A
C260        H299   1.081       .  S
Mg261       O290   2.158       .  S
Mg261       O305   2.286       .  S
Mg261       O301   2.225       .  S
Mg261       O272   2.306       .  S
O262       Mg304   2.160       .  S
O262       Mg287   2.170       .  S
O262        C283   1.237       .  S
O263        C294   1.268       .  A
O263       Mg287   2.303       .  S
C264        O266   1.271       .  A
C264        O278   1.271       .  A
O265        C293   1.273       .  A
O265       Mg267   2.322   1_554  S
O266       Mg298   2.284       .  S
Mg267       O273   2.161       .  S
Mg267       O281   2.277       .  S
Mg267       O269   2.288       .  S
C268        O306   1.270   1_556  A
C268        O274   1.267       .  A
C268        C668   1.440       .  S
O269        C276   1.272       .  A
H270        C283   1.081       .  S
C271        O285   1.235       .  S
C271        O286   1.271       .  A
C271        H296   1.081       .  S
O272        C295   1.269       .  A
O273       Mg287   2.179       .  S
O274       Mg304   2.285       .  S
C275        O288   1.267       .  A
C275        O280   1.269       .  A
C275        C543   1.462       .  S
C276        O303   1.270       .  A
C276        C403   1.477       .  S
Mg277       O284   2.165       .  S
Mg277       O285   2.129       .  S
Mg277       O278   2.293       .  S
Mg277       O279   2.320   1_554  S
Mg277       O306   2.281       .  S
O279        C283   1.274       .  A
O280       Mg287   2.287       .  S
O281        C300   1.268   1_556  A
O282        C302   1.272       .  A
O282       Mg298   2.304       .  S
O284       Mg298   2.166       .  S
O284        C295   1.234       .  S
O285       Mg304   2.152   1_554  S
O286       Mg298   2.314       .  S
Mg287       O303   2.268       .  S
O288       Mg304   2.236       .  S
H289        C294   1.081       .  S
O290       Mg298   2.174       .  S
O290        C293   1.235       .  S
H291        C293   1.081       .  S
H292        C295   1.081       .  S
O297       Mg304   2.300       .  S
C300        O305   1.268       .  A
C300        C666   1.444       .  S
O301        C302   1.265       .  A
O307       Mg309   2.164   1_554  S
O307      Mg1683   2.136   1_455  S
O307        C342   1.234       .  S
C308        O321   1.232       .  S
C308        O345   1.266       .  A
C308        H347   1.081       .  S
Mg309      O1706   2.181   1_455  S
Mg309       O353   2.277       .  S
Mg309       O349   2.233       .  S
Mg309       O320   2.285       .  S
O310      Mg1720   2.170   1_455  S
O310      Mg1703   2.197   1_455  S
O310        C331   1.242       .  S
O311        C342   1.270       .  A
O311      Mg1703   2.314   1_455  S
C312        O314   1.278       .  A
C312        O326   1.269       .  A
C312        C405   1.484       .  S
O313        C341   1.275       .  A
O313       Mg315   2.316   1_556  S
O314       Mg346   2.338       .  S
Mg315       O321   2.158       .  S
Mg315      O1675   2.136       .  S
Mg315       O329   2.272       .  S
Mg315       O317   2.298       .  S
C316        O354   1.265   1_554  A
C316       O1690   1.266   1_455  A
C316        C662   1.434       .  S
O317        C324   1.273       .  A
H318        C331   1.081       .  S
C319        O333   1.236       .  S
C319        O334   1.274       .  A
C319        H344   1.081       .  S
O320        C343   1.265       .  A
O321       Mg335   2.169       .  S
O322       C1684   1.266       .  A
O322       Mg352   2.284       .  S
C323        O336   1.268       .  A
C323        O328   1.281       .  A
C324        O351   1.280       .  A
Mg325       O332   2.148       .  S
Mg325      O1701   2.116   1_455  S
Mg325       O326   2.298       .  S
Mg325       O327   2.340   1_556  S
Mg325       O354   2.258       .  S
O327        C331   1.280       .  A
O328       Mg335   2.366       .  S
O329        C348   1.268   1_554  A
O330        C350   1.283       .  A
O330       Mg346   2.379       .  S
O332       Mg346   2.164       .  S
O332        C343   1.232       .  S
O333       Mg352   2.160   1_556  S
O333      Mg1693   2.116       .  S
O334      Mg1714   2.329       .  S
Mg335      O1678   2.197       .  S
Mg335       O351   2.338       .  S
Mg335      O1679   2.314       .  S
O336       Mg352   2.226       .  S
H337        C342   1.081       .  S
O338      Mg1677   2.181       .  S
O338      Mg1714   2.179       .  S
O338        C341   1.239       .  S
H339        C341   1.081       .  S
H340        C343   1.081       .  S
O345       Mg352   2.292       .  S
Mg346      O1706   2.179   1_455  S
Mg346      O1702   2.329   1_455  S
C348       O1721   1.267       .  A
C348        C664   1.437       .  S
O349        C350   1.269       .  A
C350        C425   1.489       .  S
Mg352      O1678   2.170       .  S
O353       C1716   1.267   1_455  A
O355       Mg357   2.133       .  S
O355       Mg363   2.120       .  S
O355        C390   1.237       .  S
C356        O369   1.232       .  S
C356        O393   1.265       .  A
C356        H395   1.081       .  S
Mg357       O386   2.154       .  S
Mg357       O401   2.290       .  S
Mg357       O397   2.225       .  S
Mg357       O368   2.308       .  S
O358       Mg400   2.171       .  S
O358       Mg383   2.151       .  S
O358        C379   1.236       .  S
O359        C390   1.273       .  A
O359       Mg383   2.317       .  S
C360        O362   1.266       .  A
C360        O374   1.267       .  A
C360        C624   1.472       .  S
O361        C389   1.276       .  A
O361       Mg363   2.331       .  S
O362       Mg394   2.273       .  S
Mg363       O369   2.129       .  S
Mg363       O377   2.245       .  S
Mg363       O365   2.254       .  S
C364        O402   1.270       .  A
C364        O370   1.271       .  A
C364        C659   1.431       .  S
O365        C372   1.265       .  A
H366        C379   1.081       .  S
C367        O381   1.236       .  S
C367        O382   1.272       .  A
C367        H392   1.081   1_545  S
O368        C391   1.268       .  A
O369       Mg383   2.170       .  S
O370      Mg1084   2.288       .  S
C371        O384   1.269       .  A
C371       O1060   1.266       .  A
C371        C438   1.458       .  S
C372        O399   1.264       .  A
C372        C418   1.466       .  S
Mg373       O380   2.146       .  S
Mg373       O381   2.133       .  S
Mg373       O374   2.261       .  S
Mg373       O375   2.302       .  S
Mg373      O1086   2.258   1_545  S
O375        C379   1.271       .  A
O376       C1055   1.266   1_545  A
O376       Mg383   2.265       .  S
O377        C396   1.265       .  A
O378        C398   1.266       .  A
O378       Mg394   2.267       .  S
O380       Mg394   2.161       .  S
O380        C391   1.233       .  S
O381       Mg400   2.128       .  S
O382       Mg394   2.309       .  S
Mg383       O399   2.257       .  S
O384      Mg1084   2.229       .  S
H385        C390   1.081       .  S
O386       Mg394   2.175       .  S
O386        C389   1.238       .  S
H387        C389   1.081       .  S
H388        C391   1.081       .  S
O393       Mg400   2.287       .  S
C396        O401   1.268       .  A
C396        C658   1.432       .  S
O397        C398   1.264       .  A
C398        C600   1.448       .  S
Mg400      O1054   2.288   1_545  S
Mg400      O1068   2.229   1_545  S
O402      Mg1057   2.258       .  S
C403        C404   1.399       .  A
C403        C408   1.405       .  A
C404        H423   1.086       .  S
C404        C405   1.402       .  A
C405        C406   1.420       .  A
C406        C407   1.424       .  A
C406        C413   1.407       .  A
C407        C408   1.423       .  A
C407        C412   1.420       .  A
C408        C409   1.403       .  A
C409        H419   1.082       .  S
C409        C410   1.386       .  A
C410        H420   1.083       .  S
C410        C411   1.403       .  A
C411        C412   1.420       .  A
C411        C418   1.403       .  A
C412        C415   1.425       .  A
C413        H421   1.083       .  S
C413        C414   1.404       .  A
C414       H1790   1.082       .  S
C414        C415   1.409       .  A
C415        C416   1.426       .  A
C416        C463   1.484       .  S
C416        C417   1.398       .  A
C417        H424   1.086       .  S
C417        C418   1.394       .  A
H422       C1782   1.082       .  S
C425        C426   1.404       .  A
C425        C430   1.428       .  A
C426        H445   1.086       .  S
C426        C427   1.399       .  A
C427        C428   1.401       .  A
C428        C429   1.419       .  A
C428        C435   1.405       .  A
C429        C430   1.425       .  A
C429        C434   1.419       .  A
C430        C431   1.411       .  A
C431        H441   1.082       .  S
C431        C432   1.406       .  A
C432       H1810   1.083       .  S
C432        C433   1.407       .  A
C433        C434   1.420       .  A
C433        C440   1.423       .  A
C434        C437   1.420       .  A
C435        H443   1.083       .  S
C435        C436   1.388       .  A
C436       H1128   1.083       .  S
C436        C437   1.401       .  A
C437        C438   1.404       .  A
C438        C439   1.381       .  A
C439        H446   1.089       .  S
C439        C440   1.388       .  A
C440        C538   1.461       .  S
H442       C1800   1.083       .  S
H444       C1120   1.083   1_545  S
O447       Mg449   2.173       .  S
O447       Mg455   2.139       .  S
O447        C482   1.234       .  S
C448        O461   1.232       .  S
C448        O485   1.265       .  A
C448        H487   1.081       .  S
Mg449       O478   2.178       .  S
Mg449       O489   2.236       .  S
Mg449       O460   2.289       .  S
Mg449      O1177   2.271   1_545  S
O450       Mg492   2.177       .  S
O450       Mg475   2.190       .  S
O450        C471   1.241       .  S
O451        C482   1.270       .  A
O451       Mg475   2.316       .  S
C452        O454   1.280       .  A
C452        O466   1.271       .  A
C452        C578   1.490       .  S
O453        C481   1.275       .  A
O453       Mg455   2.320       .  S
O454       Mg486   2.346       .  S
Mg455       O461   2.144       .  S
Mg455      O1153   2.253   1_545  S
Mg455      O1141   2.305   1_545  S
C456        O494   1.265       .  A
C456        O462   1.265       .  A
C456        C655   1.429       .  S
O457       C1148   1.273       .  A
O457      Mg1139   2.305       .  S
H458        C471   1.081       .  S
C459        O473   1.234       .  S
C459        O474   1.272       .  A
C459        H484   1.081       .  S
O460        C483   1.266       .  A
O461       Mg475   2.166       .  S
O462      Mg1860   2.270   1_455  S
C463        O476   1.267       .  A
C463       O1836   1.280   1_455  A
C464        O491   1.280   1_565  A
C464       O1141   1.273       .  A
C464       C1240   1.492       .  S
Mg465       O472   2.147       .  S
Mg465       O473   2.123       .  S
Mg465       O466   2.310       .  S
Mg465       O467   2.334       .  S
Mg465      O1862   2.253       .  S
O467        C471   1.279       .  A
O468       C1831   1.280       .  A
O468       Mg475   2.362       .  S
O469        C488   1.266       .  A
O469      Mg1139   2.253       .  S
O470        C490   1.282       .  A
O470       Mg486   2.370       .  S
O472       Mg486   2.163       .  S
O472        C483   1.233       .  S
O473       Mg492   2.163       .  S
O474       Mg486   2.320       .  S
Mg475       O491   2.335       .  S
O476      Mg1860   2.228   1_455  S
H477        C482   1.081       .  S
O478       Mg486   2.184       .  S
O478        C481   1.239       .  S
H479        C481   1.081       .  S
H480        C483   1.081       .  S
O485       Mg492   2.287       .  S
C488        O493   1.266       .  A
C488        C653   1.430       .  S
O489        C490   1.269       .  A
C490        C622   1.485       .  S
Mg492      O1830   2.270       .  S
Mg492      O1844   2.228       .  S
O493      Mg1133   2.271       .  S
O494      Mg1833   2.253   1_455  S
O495       Mg497   2.161       .  S
O495       Mg503   2.134       .  S
O495        C530   1.234       .  S
C496        O509   1.233       .  S
C496        O533   1.267       .  A
C496        H535   1.081       .  S
Mg497       O526   2.161       .  S
Mg497       O508   2.310       .  S
Mg497      O1909   2.289       .  S
Mg497      O1905   2.233       .  S
O498       Mg540   2.170       .  S
O498       Mg523   2.171       .  S
O498        C519   1.236       .  S
O499        C530   1.270       .  A
O499       Mg523   2.314       .  S
C500        O502   1.272       .  A
C500        O514   1.271       .  A
C500        C558   1.480       .  S
O501        C529   1.275       .  A
O501       Mg503   2.332       .  S
O502       Mg534   2.297       .  S
Mg503       O509   2.155       .  S
Mg503       O505   2.284       .  S
Mg503      O1885   2.272       .  S
C504        O542   1.272       .  A
C504        O510   1.269       .  A
C504        C651   1.444       .  S
O505        C512   1.270       .  A
H506        C519   1.081       .  S
C507        O521   1.234       .  S
C507        O522   1.271       .  A
C507        H532   1.081       .  S
O508        C531   1.269       .  A
O509       Mg523   2.176       .  S
O510       Mg540   2.286       .  S
C511        O524   1.269       .  A
C511        O516   1.269       .  A
C511        C602   1.466       .  S
C512        O539   1.270       .  A
C512        C580   1.479       .  S
Mg513       O520   2.173       .  S
Mg513       O521   2.131       .  S
Mg513       O514   2.282       .  S
Mg513       O515   2.315       .  S
Mg513       O542   2.292       .  S
O515        C519   1.273       .  A
O516       Mg523   2.295       .  S
O517        C536   1.267       .  A
O517      Mg1871   2.272   1_455  S
O518       C1906   1.273       .  A
O518       Mg534   2.308       .  S
O520       Mg534   2.170       .  S
O520        C531   1.233       .  S
O521       Mg540   2.149       .  S
O522       Mg534   2.313       .  S
Mg523       O539   2.276       .  S
O524       Mg540   2.231       .  S
H525        C530   1.081       .  S
O526       Mg534   2.189       .  S
O526        C529   1.237       .  S
H527        C529   1.081       .  S
H528        C531   1.081       .  S
O533       Mg540   2.293       .  S
C536        O541   1.268       .  A
C536        C649   1.445       .  S
O537        C538   1.266       .  A
O537      Mg1865   2.233   1_455  S
C538       O1886   1.273   1_455  A
O541      Mg1865   2.289   1_455  S
C543        C544   1.381       .  A
C543        C548   1.416       .  A
C544        H563   1.088       .  S
C544        C545   1.384       .  A
C545        C546   1.407       .  A
C546        C547   1.414       .  A
C546        C553   1.405       .  A
C547        C548   1.423       .  A
C547        C552   1.417       .  A
C548        C549   1.402       .  A
C549        H559   1.083       .  S
C549        C550   1.396       .  A
C550        H560   1.083       .  S
C550        C551   1.409       .  A
C551        C552   1.419       .  A
C551        C558   1.409       .  A
C552        C555   1.427       .  A
C553        H561   1.083       .  S
C553        C554   1.395       .  A
C554       H1246   1.083       .  S
C554        C555   1.405       .  A
C555        C556   1.415       .  A
C556       C1148   1.492       .  S
C556        C557   1.406       .  A
C557        H564   1.085       .  S
C557        C558   1.407       .  A
H562       C1238   1.083       .  S
C565        C566   1.394       .  A
C565        C570   1.403       .  A
C566        H585   1.086       .  S
C566        C567   1.394       .  A
C567        C568   1.427       .  A
C568        C569   1.424       .  A
C568        C575   1.409       .  A
C569        C570   1.419       .  A
C569       C1942   1.421   1_455  A
C570        C571   1.403       .  A
C571        H581   1.083       .  S
C571       C1940   1.386   1_455  A
C572        H582   1.082       .  S
C572        C573   1.403       .  A
C572       C1939   1.386       .  A
C573        C574   1.423       .  A
C573        C580   1.405       .  A
C574        C577   1.425       .  A
C574       C1937   1.421       .  A
C575        H583   1.083       .  S
C575       C1944   1.406       .  A
C576        H584   1.083       .  S
C576        C577   1.408       .  A
C576       C1943   1.406       .  A
C577        C578   1.424       .  A
C578        C579   1.405       .  A
C579        H586   1.086       .  S
C579        C580   1.400       .  A
C587        C588   1.407       .  A
C587        C592   1.412       .  A
C588        H607   1.086       .  S
C588        C589   1.406       .  A
C589        C590   1.412       .  A
C590        C591   1.427       .  A
C590        C597   1.405       .  A
C591        C592   1.422       .  A
C591        C596   1.418       .  A
C592        C593   1.408       .  A
C593        H603   1.083       .  S
C593        C594   1.398       .  A
C594        H604   1.083       .  S
C594        C595   1.404       .  A
C595        C596   1.424       .  A
C595        C602   1.418       .  A
C596        C599   1.417       .  A
C597        H605   1.083       .  S
C597        C598   1.393       .  A
C598        H606   1.083       .  S
C598        C599   1.404       .  A
C599        C600   1.406       .  A
C600        C601   1.384       .  A
C601        H608   1.089       .  S
C601        C602   1.383       .  A
C609        C610   1.380       .  A
C609        C614   1.401       .  A
C610        H629   1.088       .  S
C610        C611   1.388       .  A
C611        C612   1.428       .  A
C612        C613   1.422       .  A
C612        C619   1.407       .  A
C613        C614   1.417       .  A
C613       C1302   1.420       .  A
C614        C615   1.402       .  A
C615        H625   1.083       .  S
C615       C1300   1.386       .  A
C616        H626   1.083       .  S
C616        C617   1.403       .  A
C616       C1299   1.386   1_545  A
C617        C618   1.421       .  A
C617        C624   1.403       .  A
C618        C621   1.423       .  A
C618       C1297   1.420   1_545  A
C619        H627   1.083       .  S
C619       C1304   1.409       .  A
C620        H628   1.082       .  S
C620        C621   1.412       .  A
C620       C1303   1.409   1_545  A
C621        C622   1.429       .  A
C622        C623   1.402       .  A
C623        H630   1.086       .  S
C623        C624   1.397       .  A
C631       C2031   1.457       .  S
C631       C1316   1.414   1_656  A
C631       C2004   1.406       .  A
C632       C1356   1.441       .  S
C632        C633   1.416   1_565  A
C632       C1315   1.414   1_454  A
C633        C665   1.460       .  S
C633        C634   1.407       .  A
C634        C661   1.454       .  S
C634       C2003   1.411   1_454  A
C635        C670   1.443       .  S
C635       C2002   1.411   1_556  A
C635       C1320   1.413   1_545  A
C636        C667   1.456       .  S
C636       C1999   1.406       .  A
C636       C1319   1.413       .  A
C637        C673   1.457       .  S
C637        C638   1.406       .  A
C637        C642   1.417       .  A
C638        C684   1.460       .  S
C638        C639   1.411       .  A
C639        C680   1.443       .  S
C639        C640   1.416       .  A
C640        C675   1.453       .  S
C640        C641   1.407       .  A
C641        C682   1.462       .  S
C641        C642   1.413       .  A
C642        C678   1.441       .  S
C643        C660   1.446       .  S
C643        C644   1.414       .  A
C643        C648   1.413       .  A
C644        C650   1.460       .  S
C644        C645   1.407       .  A
C645        C656   1.450       .  S
C645        C646   1.412       .  A
C646        C657   1.446       .  S
C646        C647   1.414       .  A
C647        C652   1.460       .  S
C647        C648   1.408       .  A
C648        C654   1.450       .  S
C649        C650   1.213       .  T
C651        C652   1.212       .  T
C653        C654   1.204       .  T
C655        C656   1.203       .  T
C657        C658   1.205       .  T
C659        C660   1.204       .  T
C661        C662   1.206       .  T
C663       C1999   1.457       .  S
C663        C664   1.208       .  T
C665        C666   1.212       .  T
C667        C668   1.210       .  T
C669        C670   1.202       .  T
C671        C672   1.202       .  T
C672       C1316   1.441       .  S
C673        C674   1.211       .  T
C675        C676   1.208       .  T
C677        C678   1.202       .  T
C679        C680   1.202       .  T
C681        C682   1.211       .  T
C683        C684   1.209       .  T
O685       Mg687   2.174       .  S
O685       Mg693   2.173       .  S
O685        C720   1.232       .  S
C686        O699   1.234       .  S
C686        O723   1.269       .  A
C686        H725   1.081       .  S
Mg687       O716   2.165       .  S
Mg687      O2099   2.285   1_455  S
Mg687      O2095   2.263   1_455  S
Mg687       O698   2.295       .  S
O688       Mg730   2.160       .  S
O688       Mg713   2.176       .  S
O688        C709   1.236       .  S
O689        C720   1.268       .  A
O689       Mg713   2.302       .  S
C690        O692   1.280       .  A
C690        O704   1.270       .  A
C690        C733   1.483       .  S
O691        C719   1.271       .  A
O691       Mg693   2.304       .  S
O692       Mg724   2.333       .  S
Mg693       O699   2.168       .  S
Mg693      O2075   2.275   1_455  S
Mg693       O695   2.279       .  S
C694        O732   1.268       .  A
C694        O700   1.269       .  A
C694       C1365   1.442       .  S
O695        C702   1.271       .  A
H696        C709   1.081       .  S
C697        O711   1.235       .  S
C697        O712   1.271       .  A
C697        H722   1.081       .  S
O698        C721   1.268       .  A
O699       Mg713   2.184       .  S
O700       Mg730   2.292       .  S
C701        O714   1.271       .  A
C701        O706   1.280       .  A
C701       C1273   1.490       .  S
C702        O729   1.279       .  A
C702       C1251   1.479       .  S
Mg703       O710   2.162       .  S
Mg703       O711   2.164       .  S
Mg703       O704   2.273       .  S
Mg703       O705   2.316       .  S
Mg703       O732   2.277       .  S
O705        C709   1.273       .  A
O706       Mg713   2.351       .  S
O707        C726   1.269       .  A
O707      Mg2061   2.275       .  S
O708        C728   1.285   1_455  A
O708       Mg724   2.376       .  S
O710       Mg724   2.180       .  S
O710        C721   1.233       .  S
O711       Mg730   2.184       .  S
O712       Mg724   2.316       .  S
Mg713       O729   2.322       .  S
O714       Mg730   2.266       .  S
H715        C720   1.081       .  S
O716       Mg724   2.166       .  S
O716        C719   1.236       .  S
H717        C719   1.081   1_655  S
H718        C721   1.081       .  S
O723       Mg730   2.302       .  S
C726        O731   1.269       .  A
C726       C1367   1.438       .  S
O727       C2096   1.271       .  A
O727      Mg2055   2.263       .  S
C728       O2095   1.271       .  A
C728       C2125   1.490       .  S
O731      Mg2055   2.285       .  S
C733        C734   1.397       .  A
C733        C738   1.426       .  A
C734        H753   1.086       .  S
C734        C735   1.399       .  A
C735        C736   1.402       .  A
C736        C737   1.417       .  A
C736        C743   1.406       .  A
C737        C738   1.424       .  A
C737        C742   1.419       .  A
C738        C739   1.409       .  A
C739        H749   1.083       .  S
C739        C740   1.404       .  A
C740        H750   1.083       .  S
C740        C741   1.407       .  A
C741        C742   1.418       .  A
C741        C748   1.420       .  A
C742        C745   1.419       .  A
C743        C744   1.388       .  A
C744        H752   1.083       .  S
C744        C745   1.402       .  A
C745        C746   1.406       .  A
C746        C912   1.457       .  S
C746        C747   1.383       .  A
C747        H754   1.088       .  S
C747        C748   1.390       .  A
C748        C986   1.459       .  S
C755        C756   1.398       .  A
C755        C760   1.401       .  A
C756        H775   1.086       .  S
C756        C757   1.405       .  A
C757       C2096   1.490       .  S
C757        C758   1.424       .  A
C758        C759   1.426       .  A
C758        C765   1.407       .  A
C759        C760   1.423       .  A
C759        C764   1.419       .  A
C760        C761   1.403       .  A
C761        C762   1.385       .  A
C762        H772   1.083       .  S
C762        C763   1.402       .  A
C763        C764   1.421       .  A
C763        C770   1.400       .  A
C764        C767   1.424       .  A
C765       H2141   1.083       .  S
C765        C766   1.407       .  A
C766        H774   1.082       .  S
C766        C767   1.410       .  A
C767        C768   1.427       .  A
C768       C1007   1.484       .  S
C768        C769   1.400       .  A
C769        H776   1.086       .  S
C769        C770   1.393       .  A
C770        C911   1.468       .  S
H773       C2133   1.083       .  S
O777       Mg779   2.124       .  S
O777       Mg785   2.123       .  S
O777        C812   1.236       .  S
C778        O791   1.233       .  S
C778        O815   1.266       .  A
C778        H817   1.081       .  S
Mg779       O808   2.158       .  S
Mg779      O2191   2.282   1_455  S
Mg779      O2187   2.221   1_455  S
Mg779       O790   2.299       .  S
O780       Mg822   2.169       .  S
O780       Mg805   2.146       .  S
O780        C801   1.236       .  S
O781        C812   1.271       .  A
O781       Mg805   2.308       .  S
C782        O784   1.263       .  A
O783        C811   1.273       .  A
O783       Mg785   2.319       .  S
O784       Mg816   2.244       .  S
Mg785       O791   2.130       .  S
Mg785      O2167   2.246   1_455  S
Mg785       O787   2.265       .  S
C786        O824   1.268       .  A
C786        O792   1.270       .  A
C786       C1361   1.427       .  S
O787        C794   1.267       .  A
H788        C801   1.081       .  S
C789        O803   1.235       .  S
C789        O804   1.270       .  A
C789        H814   1.081       .  S
O790        C813   1.267       .  A
O791       Mg805   2.164       .  S
C793        O806   1.267       .  A
C793        O798   1.263       .  A
C793       C1293   1.450       .  S
C794        O821   1.263       .  A
C794       C1249   1.463       .  S
Mg795       O802   2.134       .  S
Mg795       O803   2.128       .  S
Mg795       O797   2.304       .  S
O797        C801   1.271       .  A
O798       Mg805   2.245       .  S
O799        C818   1.266       .  A
O799      Mg2153   2.246       .  S
O800       C2188   1.263   1_455  A
O800       Mg816   2.246       .  S
O802       Mg816   2.160       .  S
O802        C813   1.233       .  S
O803       Mg822   2.113       .  S
O804       Mg816   2.303       .  S
Mg805       O821   2.241       .  S
O806       Mg822   2.219       .  S
H807        C812   1.081   1_655  S
O808       Mg816   2.156       .  S
O808        C811   1.236       .  S
H809        C811   1.081       .  S
H810        C813   1.081       .  S
O815       Mg822   2.291       .  S
C818        O823   1.268       .  A
C818       C1363   1.427       .  S
O819        C820   1.265       .  A
O819      Mg2147   2.221       .  S
C820       O2168   1.263       .  A
C820        C873   1.446       .  S
O823      Mg2147   2.282       .  S
O825       Mg827   2.169       .  S
O825       Mg833   2.192       .  S
O825        C860   1.236       .  S
C826        O839   1.234       .  S
C826        O863   1.270       .  A
C826        H865   1.081       .  S
Mg827       O856   2.157       .  S
Mg827       O871   2.302       .  S
Mg827       O867   2.276       .  S
Mg827       O838   2.317       .  S
O828       Mg870   2.146       .  S
O828       Mg853   2.160       .  S
O828        C849   1.232   1_565  S
O829        C860   1.271       .  A
O829       Mg853   2.305       .  S
C830        O832   1.274       .  A
C830        O844   1.267       .  A
C830       C1295   1.465       .  S
O831        C859   1.268       .  A
O831       Mg833   2.301       .  S
O832       Mg864   2.300       .  S
Mg833       O839   2.140       .  S
Mg833       O847   2.259       .  S
Mg833       O835   2.252       .  S
C834        O872   1.270       .  A
C834        O840   1.271       .  A
C834       C1358   1.442       .  S
O835        C842   1.267       .  A
H836        C849   1.081       .  S
C837        O851   1.235       .  S
C837        O852   1.271       .  A
C837        H862   1.081       .  S
O838        C861   1.271       .  A
O839       Mg853   2.163       .  S
C841        O846   1.269   1_545  A
C842        O869   1.270       .  A
C842        C875   1.465       .  S
Mg843       O850   2.167       .  S
Mg843       O851   2.184       .  S
Mg843       O844   2.248       .  S
Mg843       O845   2.302   1_565  S
O845        C849   1.268       .  A
O846       Mg853   2.282       .  S
O847        C866   1.267       .  A
O848        C868   1.274       .  A
O848       Mg864   2.306       .  S
O850       Mg864   2.172       .  S
O850        C861   1.234       .  S
O851       Mg870   2.172       .  S
O852       Mg864   2.309       .  S
Mg853       O869   2.281       .  S
H855        C860   1.081       .  S
O856       Mg864   2.174       .  S
O856        C859   1.233       .  S
H857        C859   1.081       .  S
H858        C861   1.081       .  S
O863       Mg870   2.308       .  S
C866        O871   1.272       .  A
C866       C1360   1.438       .  S
O867        C868   1.271       .  A
C868       C1271   1.484       .  S
C873        C874   1.386       .  A
C873        C878   1.405       .  A
C874        H893   1.088       .  S
C874        C875   1.384       .  A
C875        C876   1.419       .  A
C876        C877   1.424       .  A
C876        C883   1.403       .  A
C877        C878   1.414       .  A
C877        C882   1.418       .  A
C878        C879   1.406       .  A
C879       H2257   1.083       .  S
C879        C880   1.394       .  A
C880        H890   1.083       .  S
C880        C881   1.404       .  A
C881        C882   1.428       .  A
C881        C888   1.414       .  A
C882        C885   1.419       .  A
C883        H891   1.083       .  S
C883        C884   1.397       .  A
C884        H892   1.083       .  S
C884        C885   1.409       .  A
C885        C886   1.410       .  A
C886        C948   1.478       .  S
C886        C887   1.405       .  A
C887        H894   1.086       .  S
C887        C888   1.404       .  A
C888       C1008   1.491       .  S
H889       C2247   1.083   1_455  S
O895       Mg897   2.149   1_554  S
O895        C930   1.238       .  S
C896        O909   1.236       .  S
C896        O933   1.271       .  A
C896        H935   1.081       .  S
Mg897       O908   2.316       .  S
O898       Mg923   2.136       .  S
O898        C919   1.232       .  S
O899        C930   1.273       .  A
O899       Mg923   2.305       .  S
C900        O902   1.263       .  A
C900        O914   1.268       .  A
C900       C1229   1.444       .  S
O901        C929   1.266   1_554  A
O901       Mg903   2.296       .  S
O902       Mg934   2.225       .  S
Mg903       O909   2.123       .  S
Mg903       O917   2.248   1_565  S
C904        O942   1.269       .  A
C904        O910   1.270   1_556  A
C904       C1353   1.427       .  S
O905        C912   1.270       .  A
H906        C919   1.081       .  S
C907        O921   1.237       .  S
C907        O922   1.271       .  A
C907        H932   1.081       .  S
O908        C931   1.272       .  A
C911        O924   1.268       .  A
C911        O916   1.262       .  A
C912        O939   1.265       .  A
Mg913       O920   2.133       .  S
Mg913       O915   2.287       .  S
Mg913       O942   2.257       .  S
O915        C919   1.265   1_556  A
O916       Mg923   2.249       .  S
O917        C936   1.268   1_545  A
O918        C938   1.263       .  A
O918       Mg934   2.247       .  S
O920        C931   1.236       .  S
O921       Mg940   2.143   1_556  S
O922       Mg934   2.304       .  S
Mg923       O939   2.239       .  S
H925        C930   1.081   1_556  S
O926       Mg934   2.138       .  S
O926        C929   1.232       .  S
H927        C929   1.081       .  S
H928        C931   1.081       .  S
O933       Mg940   2.312       .  S
C936        O941   1.270   1_554  A
C936       C1355   1.427       .  S
O937        C938   1.267       .  A
C938       C1111   1.471       .  S
O943       Mg945   2.152   1_556  S
O943       Mg951   2.135       .  S
O943        C978   1.233       .  S
C944        O957   1.234       .  S
C944        O981   1.268       .  A
C944        H983   1.081       .  S
Mg945       O974   2.158       .  S
Mg945       O989   2.286       .  S
Mg945       O985   2.225       .  S
Mg945       O956   2.306       .  S
O946       Mg988   2.160       .  S
O946       Mg971   2.170       .  S
O946        C967   1.237       .  S
O947        C978   1.268       .  A
O947       Mg971   2.303       .  S
C948        O950   1.271       .  A
C948        O962   1.271       .  A
O949        C977   1.273       .  A
O949       Mg951   2.322   1_554  S
O950       Mg982   2.284       .  S
Mg951       O957   2.161       .  S
Mg951       O965   2.277       .  S
Mg951       O953   2.288       .  S
C952        O990   1.270   1_556  A
C952        O958   1.267       .  A
C952       C1352   1.440       .  S
O953        C960   1.272       .  A
H954        C967   1.081       .  S
C955        O969   1.235       .  S
C955        O970   1.271       .  A
C955        H980   1.081       .  S
O956        C979   1.269       .  A
O957       Mg971   2.179       .  S
O958       Mg988   2.285       .  S
C959        O972   1.267       .  A
C959        O964   1.269       .  A
C959       C1227   1.462       .  S
C960        O987   1.270       .  A
C960       C1087   1.477       .  S
Mg961       O968   2.165       .  S
Mg961       O969   2.129       .  S
Mg961       O962   2.293       .  S
Mg961       O963   2.320   1_554  S
Mg961       O990   2.281       .  S
O963        C967   1.274       .  A
O964       Mg971   2.287       .  S
O965        C984   1.268   1_556  A
O966        C986   1.272       .  A
O966       Mg982   2.304       .  S
O968       Mg982   2.166       .  S
O968        C979   1.234       .  S
O969       Mg988   2.152   1_554  S
O970       Mg982   2.314       .  S
Mg971       O987   2.268       .  S
O972       Mg988   2.236       .  S
H973        C978   1.081       .  S
O974       Mg982   2.174       .  S
O974        C977   1.235       .  S
H975        C977   1.081       .  S
H976        C979   1.081       .  S
O981       Mg988   2.300       .  S
C984        O989   1.268       .  A
C984       C1350   1.444       .  S
O985        C986   1.265       .  A
O991       Mg993   2.164   1_554  S
O991      Mg2367   2.136   1_455  S
O991       C1026   1.234       .  S
C992       O1005   1.232       .  S
C992       O1029   1.266       .  A
C992       H1031   1.081       .  S
Mg993      O2390   2.181   1_455  S
Mg993      O1037   2.277       .  S
Mg993      O1033   2.233       .  S
Mg993      O1004   2.285       .  S
O994      Mg2404   2.170   1_455  S
O994      Mg2387   2.197   1_455  S
O994       C1015   1.242       .  S
O995       C1026   1.270       .  A
O995      Mg2387   2.314   1_455  S
C996        O998   1.278       .  A
C996       O1010   1.269       .  A
C996       C1089   1.484       .  S
O997       C1025   1.275       .  A
O997       Mg999   2.316   1_556  S
O998      Mg1030   2.338       .  S
Mg999      O2359   2.136       .  S
Mg999      O1005   2.158       .  S
Mg999      O1013   2.272       .  S
Mg999      O1001   2.298       .  S
C1000      O1038   1.265   1_554  A
C1000      O2374   1.266   1_455  A
C1000      C1346   1.434       .  S
O1001      C1008   1.273       .  A
H1002      C1015   1.081       .  S
C1003      O1017   1.236       .  S
C1003      O1018   1.274       .  A
C1003      H1028   1.081       .  S
O1004      C1027   1.265       .  A
O1005     Mg1019   2.169       .  S
O1006      C2368   1.266       .  A
O1006     Mg1036   2.284       .  S
C1007      O1020   1.268       .  A
C1007      O1012   1.281       .  A
C1008      O1035   1.280       .  A
Mg1009     O1016   2.148       .  S
Mg1009     O2385   2.116   1_455  S
Mg1009     O1010   2.298       .  S
Mg1009     O1011   2.340   1_556  S
Mg1009     O1038   2.258       .  S
O1011      C1015   1.280       .  A
O1012     Mg1019   2.366       .  S
O1013      C1032   1.268   1_554  A
O1014      C1034   1.283       .  A
O1014     Mg1030   2.379       .  S
O1016     Mg1030   2.164       .  S
O1016      C1027   1.232       .  S
O1017     Mg2377   2.116       .  S
O1017     Mg1036   2.160   1_556  S
O1018     Mg2398   2.329       .  S
Mg1019     O2362   2.197       .  S
Mg1019     O2363   2.314       .  S
Mg1019     O1035   2.338       .  S
O1020     Mg1036   2.226       .  S
H1021      C1026   1.081       .  S
O1022     Mg2361   2.181       .  S
O1022     Mg2398   2.179       .  S
O1022      C1025   1.239       .  S
H1023      C1025   1.081       .  S
H1024      C1027   1.081       .  S
O1029     Mg1036   2.292       .  S
Mg1030     O2390   2.179   1_455  S
Mg1030     O2386   2.329   1_455  S
C1032      O2405   1.267       .  A
C1032      C1348   1.437       .  S
O1033      C1034   1.269       .  A
C1034      C1109   1.489       .  S
Mg1036     O2362   2.170       .  S
O1037      C2400   1.267   1_455  A
O1039     Mg1041   2.133       .  S
O1039     Mg1047   2.120       .  S
O1039      C1074   1.237       .  S
C1040      O1053   1.232       .  S
C1040      O1077   1.265       .  A
C1040      H1079   1.081       .  S
Mg1041     O1070   2.154       .  S
Mg1041     O1085   2.290       .  S
Mg1041     O1081   2.225       .  S
Mg1041     O1052   2.308       .  S
O1042     Mg1084   2.171       .  S
O1042     Mg1067   2.151       .  S
O1042      C1063   1.236       .  S
O1043      C1074   1.273       .  A
O1043     Mg1067   2.316       .  S
C1044      O1046   1.266       .  A
C1044      O1058   1.267       .  A
C1044      C1308   1.472       .  S
O1045      C1073   1.276       .  A
O1045     Mg1047   2.331       .  S
O1046     Mg1078   2.273       .  S
Mg1047     O1053   2.129       .  S
Mg1047     O1061   2.245       .  S
Mg1047     O1049   2.254       .  S
C1048      O1086   1.270       .  A
C1048      O1054   1.271       .  A
C1048      C1343   1.431       .  S
O1049      C1056   1.265       .  A
H1050      C1063   1.081       .  S
C1051      O1065   1.236       .  S
C1051      O1066   1.272       .  A
C1051      H1076   1.081       .  S
O1052      C1075   1.268       .  A
O1053     Mg1067   2.170       .  S
C1055      O1068   1.269       .  A
C1055      C1122   1.458       .  S
C1056      O1083   1.264       .  A
C1056      C1102   1.466       .  S
Mg1057     O1064   2.146       .  S
Mg1057     O1065   2.133       .  S
Mg1057     O1058   2.261       .  S
Mg1057     O1059   2.302       .  S
O1059      C1063   1.271       .  A
O1060     Mg1067   2.265       .  S
O1061      C1080   1.265       .  A
O1062      C1082   1.266       .  A
O1062     Mg1078   2.267       .  S
O1064     Mg1078   2.161       .  S
O1064      C1075   1.233       .  S
O1065     Mg1084   2.128       .  S
O1066     Mg1078   2.309       .  S
Mg1067     O1083   2.257       .  S
H1069      C1074   1.081       .  S
O1070     Mg1078   2.175       .  S
O1070      C1073   1.238       .  S
H1071      C1073   1.081       .  S
H1072      C1075   1.081       .  S
O1077     Mg1084   2.287       .  S
C1080      O1085   1.268       .  A
C1080      C1342   1.432       .  S
O1081      C1082   1.264       .  A
C1082      C1284   1.448       .  S
C1087      C1088   1.399       .  A
C1087      C1092   1.405       .  A
C1088      H1107   1.086       .  S
C1088      C1089   1.402       .  A
C1089      C1090   1.420       .  A
C1090      C1091   1.424       .  A
C1090      C1097   1.407       .  A
C1091      C1092   1.423       .  A
C1091      C1096   1.420       .  A
C1092      C1093   1.403       .  A
C1093      H1103   1.082       .  S
C1093      C1094   1.386       .  A
C1094      H1104   1.083       .  S
C1094      C1095   1.403       .  A
C1095      C1096   1.420       .  A
C1095      C1102   1.403       .  A
C1096      C1099   1.425       .  A
C1097      H1105   1.083       .  S
C1097      C1098   1.404       .  A
C1098      H2474   1.082       .  S
C1098      C1099   1.409       .  A
C1099      C1100   1.426       .  A
C1100      C1147   1.484       .  S
C1100      C1101   1.398       .  A
C1101      H1108   1.086       .  S
C1101      C1102   1.394       .  A
H1106      C2466   1.082       .  S
C1109      C1110   1.404       .  A
C1109      C1114   1.428       .  A
C1110      H1129   1.086       .  S
C1110      C1111   1.399       .  A
C1111      C1112   1.401       .  A
C1112      C1113   1.419       .  A
C1112      C1119   1.405       .  A
C1113      C1114   1.425       .  A
C1113      C1118   1.419       .  A
C1114      C1115   1.411       .  A
C1115      H1125   1.082       .  S
C1115      C1116   1.406       .  A
C1116      H2494   1.083       .  S
C1116      C1117   1.407       .  A
C1117      C1118   1.420       .  A
C1117      C1124   1.423       .  A
C1118      C1121   1.420       .  A
C1119      H1127   1.083   1_565  S
C1119      C1120   1.388       .  A
C1120      C1121   1.401       .  A
C1121      C1122   1.404       .  A
C1122      C1123   1.381       .  A
C1123      H1130   1.089       .  S
C1123      C1124   1.388       .  A
C1124      C1222   1.461       .  S
H1126      C2484   1.083       .  S
O1131     Mg1133   2.173       .  S
O1131     Mg1139   2.139       .  S
O1131      C1166   1.234       .  S
C1132      O1145   1.232       .  S
C1132      O1169   1.265       .  A
C1132      H1171   1.081       .  S
Mg1133     O1162   2.178       .  S
Mg1133     O1173   2.236       .  S
Mg1133     O1144   2.289       .  S
O1134     Mg1176   2.177       .  S
O1134     Mg1159   2.190       .  S
O1134      C1155   1.241       .  S
O1135      C1166   1.270       .  A
O1135     Mg1159   2.316       .  S
C1136      O1138   1.280       .  A
C1136      O1150   1.271       .  A
C1136      C1262   1.490       .  S
O1137      C1165   1.275       .  A
O1137     Mg1139   2.320       .  S
O1138     Mg1170   2.346       .  S
Mg1139     O1145   2.144       .  S
C1140      O1178   1.265       .  A
C1140      O1146   1.265       .  A
C1140      C1339   1.429       .  S
H1142      C1155   1.081       .  S
C1143      O1157   1.234       .  S
C1143      O1158   1.272       .  A
C1143      H1168   1.081       .  S
O1144      C1167   1.266       .  A
O1145     Mg1159   2.166       .  S
O1146     Mg2544   2.270   1_455  S
C1147      O1160   1.267       .  A
C1147      O2520   1.280   1_455  A
C1148      O1175   1.280       .  A
Mg1149     O1156   2.147       .  S
Mg1149     O1157   2.123       .  S
Mg1149     O1150   2.310       .  S
Mg1149     O1151   2.334       .  S
Mg1149     O2546   2.253       .  S
O1151      C1155   1.279       .  A
O1152      C2515   1.280       .  A
O1152     Mg1159   2.362       .  S
O1153      C1172   1.266       .  A
O1154      C1174   1.282       .  A
O1154     Mg1170   2.370       .  S
O1156     Mg1170   2.163       .  S
O1156      C1167   1.233       .  S
O1157     Mg1176   2.163       .  S
O1158     Mg1170   2.320       .  S
Mg1159     O1175   2.335       .  S
O1160     Mg2544   2.228   1_455  S
H1161      C1166   1.081       .  S
O1162     Mg1170   2.184       .  S
O1162      C1165   1.239       .  S
H1163      C1165   1.081       .  S
H1164      C1167   1.081       .  S
O1169     Mg1176   2.287       .  S
C1172      O1177   1.266       .  A
C1172      C1337   1.430       .  S
O1173      C1174   1.269       .  A
C1174      C1306   1.485       .  S
Mg1176     O2514   2.270       .  S
Mg1176     O2528   2.228       .  S
O1178     Mg2517   2.253   1_455  S
O1179     Mg1181   2.161       .  S
O1179     Mg1187   2.134       .  S
O1179      C1214   1.234       .  S
C1180      O1193   1.233       .  S
C1180      O1217   1.267       .  A
C1180      H1219   1.081       .  S
Mg1181     O1210   2.161       .  S
Mg1181     O2593   2.289       .  S
Mg1181     O2589   2.233       .  S
Mg1181     O1192   2.310       .  S
O1182     Mg1224   2.170       .  S
O1182     Mg1207   2.171       .  S
O1182      C1203   1.236       .  S
O1183      C1214   1.270       .  A
O1183     Mg1207   2.314       .  S
C1184      O1186   1.272       .  A
C1184      O1198   1.271       .  A
C1184      C1242   1.480       .  S
O1185      C1213   1.275       .  A
O1185     Mg1187   2.332       .  S
O1186     Mg1218   2.297       .  S
Mg1187     O1193   2.155       .  S
Mg1187     O2569   2.272       .  S
Mg1187     O1189   2.284       .  S
C1188      O1226   1.272       .  A
C1188      O1194   1.269       .  A
C1188      C1335   1.444       .  S
O1189      C1196   1.270       .  A
H1190      C1203   1.081       .  S
C1191      O1205   1.234       .  S
C1191      O1206   1.271       .  A
C1191      H1216   1.081       .  S
O1192      C1215   1.269       .  A
O1193     Mg1207   2.176       .  S
O1194     Mg1224   2.286       .  S
C1195      O1208   1.269       .  A
C1195      O1200   1.269       .  A
C1195      C1286   1.466       .  S
C1196      O1223   1.270       .  A
C1196      C1264   1.479       .  S
Mg1197     O1204   2.173       .  S
Mg1197     O1205   2.131       .  S
Mg1197     O1198   2.282       .  S
Mg1197     O1199   2.315       .  S
Mg1197     O1226   2.292       .  S
O1199      C1203   1.273       .  A
O1200     Mg1207   2.295       .  S
O1201      C1220   1.267       .  A
O1201     Mg2555   2.272   1_455  S
O1202      C2590   1.273       .  A
O1202     Mg1218   2.308       .  S
O1204     Mg1218   2.170       .  S
O1204      C1215   1.233       .  S
O1205     Mg1224   2.149       .  S
O1206     Mg1218   2.313       .  S
Mg1207     O1223   2.276       .  S
O1208     Mg1224   2.231       .  S
H1209      C1214   1.081       .  S
O1210     Mg1218   2.189       .  S
O1210      C1213   1.237       .  S
H1211      C1213   1.081       .  S
H1212      C1215   1.081       .  S
O1217     Mg1224   2.293       .  S
C1220      O1225   1.268       .  A
C1220      C1333   1.445       .  S
O1221      C1222   1.266       .  A
O1221     Mg2549   2.233   1_455  S
C1222      O2570   1.273   1_455  A
O1225     Mg2549   2.289   1_455  S
C1227      C1228   1.381       .  A
C1227      C1232   1.416       .  A
C1228      H1247   1.088       .  S
C1228      C1229   1.384       .  A
C1229      C1230   1.407       .  A
C1230      C1231   1.414       .  A
C1230      C1237   1.405       .  A
C1231      C1232   1.423       .  A
C1231      C1236   1.417       .  A
C1232      C1233   1.402       .  A
C1233      H1243   1.083       .  S
C1233      C1234   1.396       .  A
C1234      H1244   1.083       .  S
C1234      C1235   1.409       .  A
C1235      C1236   1.419       .  A
C1235      C1242   1.409       .  A
C1236      C1239   1.427       .  A
C1237      H1245   1.083       .  S
C1237      C1238   1.395       .  A
C1238      C1239   1.405       .  A
C1239      C1240   1.415       .  A
C1240      C1241   1.406       .  A
C1241      H1248   1.085       .  S
C1241      C1242   1.407       .  A
C1249      C1250   1.394       .  A
C1249      C1254   1.403       .  A
C1250      H1269   1.086       .  S
C1250      C1251   1.394       .  A
C1251      C1252   1.427       .  A
C1252      C1253   1.424       .  A
C1252      C1259   1.409       .  A
C1253      C1254   1.419       .  A
C1253      C2626   1.421   1_455  A
C1254      C1255   1.403       .  A
C1255      H1265   1.083       .  S
C1255      C2624   1.386   1_455  A
C1256      H1266   1.082       .  S
C1256      C2623   1.386       .  A
C1256      C1257   1.403       .  A
C1257      C1258   1.423       .  A
C1257      C1264   1.405       .  A
C1258      C2621   1.421       .  A
C1258      C1261   1.425       .  A
C1259      H1267   1.083       .  S
C1259      C2628   1.406       .  A
C1260      H1268   1.083       .  S
C1260      C2627   1.406       .  A
C1260      C1261   1.408       .  A
C1261      C1262   1.424       .  A
C1262      C1263   1.405       .  A
C1263      H1270   1.086       .  S
C1263      C1264   1.400       .  A
C1271      C1272   1.407       .  A
C1271      C1276   1.412       .  A
C1272      H1291   1.086       .  S
C1272      C1273   1.406       .  A
C1273      C1274   1.412       .  A
C1274      C1275   1.427       .  A
C1274      C1281   1.405       .  A
C1275      C1276   1.422       .  A
C1275      C1280   1.418       .  A
C1276      C1277   1.408       .  A
C1277      H1287   1.083       .  S
C1277      C1278   1.398       .  A
C1278      H1288   1.083       .  S
C1278      C1279   1.404       .  A
C1279      C1280   1.424       .  A
C1279      C1286   1.418       .  A
C1280      C1283   1.417       .  A
C1281      H1289   1.083       .  S
C1281      C1282   1.393       .  A
C1282      H1290   1.083       .  S
C1282      C1283   1.404       .  A
C1283      C1284   1.406       .  A
C1284      C1285   1.384       .  A
C1285      H1292   1.089       .  S
C1285      C1286   1.383       .  A
C1293      C1294   1.380       .  A
C1293      C1298   1.401       .  A
C1294      H1313   1.088       .  S
C1294      C1295   1.388       .  A
C1295      C1296   1.428       .  A
C1296      C1297   1.422       .  A
C1296      C1303   1.407       .  A
C1297      C1298   1.417       .  A
C1298      C1299   1.402       .  A
C1299      H1309   1.083       .  S
C1300      H1310   1.083       .  S
C1300      C1301   1.403       .  A
C1301      C1302   1.421       .  A
C1301      C1308   1.403       .  A
C1302      C1305   1.423       .  A
C1303      H1311   1.083       .  S
C1304      H1312   1.082       .  S
C1304      C1305   1.412       .  A
C1305      C1306   1.429       .  A
C1306      C1307   1.402       .  A
C1307      H1314   1.086       .  S
C1307      C1308   1.397       .  A
C1315      C2715   1.457       .  S
C1315      C2688   1.406       .  A
C1316      C1317   1.416       .  A
C1317      C1349   1.460       .  S
C1317      C1318   1.407       .  A
C1318      C1345   1.454       .  S
C1318      C2687   1.411   1_454  A
C1319      C1354   1.443       .  S
C1319      C2686   1.411   1_556  A
C1320      C1351   1.456       .  S
C1320      C2683   1.406       .  A
C1321      C1357   1.457       .  S
C1321      C1322   1.406       .  A
C1321      C1326   1.417       .  A
C1322      C1368   1.460       .  S
C1322      C1323   1.411       .  A
C1323      C1364   1.443       .  S
C1323      C1324   1.416       .  A
C1324      C1359   1.453       .  S
C1324      C1325   1.407       .  A
C1325      C1366   1.462       .  S
C1325      C1326   1.413       .  A
C1326      C1362   1.441       .  S
C1327      C1344   1.446       .  S
C1327      C1328   1.414       .  A
C1327      C1332   1.413       .  A
C1328      C1334   1.460       .  S
C1328      C1329   1.407       .  A
C1329      C1340   1.450       .  S
C1329      C1330   1.412       .  A
C1330      C1341   1.446       .  S
C1330      C1331   1.414       .  A
C1331      C1336   1.460       .  S
C1331      C1332   1.408       .  A
C1332      C1338   1.450       .  S
C1333      C1334   1.213       .  T
C1335      C1336   1.212       .  T
C1337      C1338   1.204       .  T
C1339      C1340   1.203       .  T
C1341      C1342   1.205       .  T
C1343      C1344   1.204       .  T
C1345      C1346   1.206       .  T
C1347      C2683   1.457       .  S
C1347      C1348   1.208       .  T
C1349      C1350   1.212       .  T
C1351      C1352   1.210       .  T
C1353      C1354   1.202       .  T
C1355      C1356   1.202       .  T
C1357      C1358   1.211       .  T
C1359      C1360   1.208       .  T
C1361      C1362   1.202       .  T
C1363      C1364   1.202       .  T
C1365      C1366   1.211       .  T
C1367      C1368   1.209       .  T
O1369     Mg1371   2.174       .  S
O1369     Mg1377   2.173       .  S
O1369      C1404   1.232       .  S
C1370      O1383   1.234       .  S
C1370      O1407   1.269       .  A
C1370      H1409   1.081       .  S
Mg1371     O1400   2.165       .  S
Mg1371     O1382   2.295       .  S
O1372     Mg1414   2.160       .  S
O1372     Mg1397   2.176       .  S
O1372      C1393   1.236       .  S
O1373      C1404   1.268       .  A
O1373     Mg1397   2.302       .  S
C1374      O1376   1.280       .  A
C1374      O1388   1.270       .  A
C1374      C1417   1.483       .  S
O1375      C1403   1.271       .  A
O1375     Mg1377   2.304       .  S
O1376     Mg1408   2.333       .  S
Mg1377     O1383   2.168       .  S
Mg1377     O1379   2.279       .  S
C1378      O1416   1.268       .  A
C1378      O1384   1.269       .  A
C1378      C2049   1.442       .  S
O1379      C1386   1.271       .  A
H1380      C1393   1.081       .  S
C1381      O1395   1.235       .  S
C1381      O1396   1.271       .  A
C1381      H1406   1.081       .  S
O1382      C1405   1.268       .  A
O1383     Mg1397   2.184       .  S
O1384     Mg1414   2.292       .  S
C1385      O1398   1.271       .  A
C1385      O1390   1.280       .  A
C1385      C1957   1.490       .  S
C1386      O1413   1.279       .  A
C1386      C1935   1.479       .  S
Mg1387     O1394   2.162       .  S
Mg1387     O1395   2.164       .  S
Mg1387     O1388   2.273       .  S
Mg1387     O1389   2.316       .  S
Mg1387     O1416   2.277       .  S
O1389      C1393   1.273       .  A
O1390     Mg1397   2.351       .  S
O1391      C1410   1.269       .  A
O1392      C1412   1.285       .  A
O1392     Mg1408   2.376       .  S
O1394     Mg1408   2.180       .  S
O1394      C1405   1.233       .  S
O1395     Mg1414   2.184       .  S
O1396     Mg1408   2.316       .  S
Mg1397     O1413   2.322       .  S
O1398     Mg1414   2.266       .  S
H1399      C1404   1.081       .  S
O1400     Mg1408   2.166       .  S
O1400      C1403   1.236       .  S
H1401      C1403   1.081       .  S
H1402      C1405   1.081       .  S
O1407     Mg1414   2.302       .  S
C1410      O1415   1.269       .  A
C1410      C2051   1.438       .  S
C1417      C1418   1.397       .  A
C1417      C1422   1.426       .  A
C1418      H1437   1.086       .  S
C1418      C1419   1.399       .  A
C1419      C2150   1.462   1_545  S
C1419      C1420   1.402       .  A
C1420      C1421   1.417       .  A
C1420      C1427   1.406       .  A
C1421      C1422   1.424       .  A
C1421      C1426   1.419       .  A
C1422      C1423   1.409       .  A
C1423      H1433   1.083       .  S
C1423      C1424   1.404       .  A
C1424      H1434   1.083       .  S
C1424      C1425   1.407       .  A
C1425      C1426   1.418       .  A
C1425      C1432   1.420       .  A
C1426      C1429   1.419       .  A
C1427      H2119   1.083   1_545  S
C1427      C1428   1.388       .  A
C1428      H1436   1.083       .  S
C1428      C1429   1.402       .  A
C1429      C1430   1.406       .  A
C1430      C1596   1.457       .  S
C1430      C1431   1.383       .  A
C1431      H1438   1.088       .  S
C1431      C1432   1.390       .  A
C1432      C1670   1.459       .  S
H1435      C2111   1.083       .  S
C1439      C2209   1.476       .  S
C1439      C1440   1.398       .  A
C1439      C1444   1.401       .  A
C1440      H1459   1.086       .  S
C1440      C1441   1.405       .  A
C1441      C1442   1.424       .  A
C1442      C1443   1.426       .  A
C1442      C1449   1.407       .  A
C1443      C1444   1.423       .  A
C1443      C1448   1.419       .  A
C1444      C1445   1.403       .  A
C1445      H2139   1.083   1_545  S
C1445      C1446   1.385       .  A
C1446      H1456   1.083       .  S
C1446      C1447   1.402       .  A
C1447      C1448   1.421       .  A
C1447      C1454   1.400       .  A
C1448      C1451   1.424       .  A
C1449      C1450   1.407       .  A
C1450      H1458   1.082       .  S
C1450      C1451   1.410       .  A
C1451      C1452   1.427       .  A
C1452      C1691   1.484       .  S
C1452      C1453   1.400       .  A
C1453      H1460   1.086       .  S
C1453      C1454   1.393       .  A
C1454      C1595   1.468       .  S
H1455      C2129   1.083       .  S
O1461     Mg1463   2.124       .  S
O1461     Mg1469   2.123       .  S
O1461      C1496   1.236       .  S
C1462      O1475   1.233       .  S
C1462      O1499   1.266       .  A
C1462      H1501   1.081       .  S
Mg1463     O1492   2.158       .  S
Mg1463     O1474   2.299       .  S
O1464     Mg1506   2.169       .  S
O1464     Mg1489   2.146       .  S
O1464      C1485   1.236       .  S
O1465      C1496   1.271       .  A
O1465     Mg1489   2.308       .  S
C1466      O1468   1.263       .  A
C1466      O2164   1.267       .  A
C1466      C2103   1.462       .  S
O1467      C1495   1.273       .  A
O1467     Mg1469   2.319       .  S
O1468     Mg1500   2.244       .  S
Mg1469     O1475   2.130       .  S
Mg1469     O1471   2.265       .  S
C1470      O1508   1.268       .  A
C1470      O1476   1.270       .  A
C1470      C2045   1.427       .  S
O1471      C1478   1.267       .  A
H1472      C1485   1.081       .  S
C1473      O1487   1.235       .  S
C1473      O1488   1.270       .  A
C1473      H1498   1.081       .  S
O1474      C1497   1.267       .  A
O1475     Mg1489   2.164       .  S
O1476     Mg2190   2.284   1_545  S
C1477      O1490   1.267       .  A
C1477      O1482   1.263       .  A
C1477      C1977   1.450       .  S
C1478      O1505   1.263       .  A
C1478      C1933   1.463       .  S
Mg1479     O1486   2.134       .  S
Mg1479     O1487   2.128       .  S
Mg1479     O2164   2.263       .  S
Mg1479     O1481   2.304       .  S
Mg1479     O2192   2.246       .  S
O1480      C2150   1.267   1_545  A
O1480     Mg2163   2.263   1_545  S
O1481      C1485   1.271       .  A
O1482     Mg1489   2.245       .  S
O1483      C1502   1.266       .  A
O1484     Mg1500   2.246       .  S
O1486     Mg1500   2.160       .  S
O1486      C1497   1.233       .  S
O1487     Mg1506   2.113       .  S
O1488     Mg1500   2.303       .  S
Mg1489     O1505   2.241       .  S
O1490     Mg1506   2.219       .  S
H1491      C1496   1.081       .  S
O1492     Mg1500   2.156       .  S
O1492      C1495   1.236       .  S
H1493      C1495   1.081       .  S
H1494      C1497   1.081       .  S
O1499     Mg1506   2.291       .  S
C1502      O1507   1.268       .  A
C1502      C2047   1.427       .  S
O1503      C1504   1.265       .  A
C1504      C1557   1.446       .  S
Mg1506     O2160   2.284       .  S
O1508     Mg2163   2.246   1_545  S
O1509     Mg1511   2.169       .  S
O1509     Mg1517   2.192       .  S
O1509      C1544   1.236       .  S
C1510      O1523   1.234       .  S
C1510      O1547   1.270       .  A
C1510      H1549   1.081       .  S
Mg1511     O1540   2.157       .  S
Mg1511     O1555   2.302       .  S
Mg1511     O1551   2.276       .  S
Mg1511     O1522   2.317       .  S
O1512     Mg1554   2.146       .  S
O1512     Mg1537   2.160       .  S
O1512      C1533   1.232       .  S
O1513      C1544   1.271       .  A
O1513     Mg1537   2.305       .  S
C1514      O1516   1.274       .  A
C1514      O1528   1.267       .  A
C1514      C1979   1.465       .  S
O1515      C1543   1.268       .  A
O1515     Mg1517   2.301       .  S
O1516     Mg1548   2.300       .  S
Mg1517     O1523   2.140       .  S
Mg1517     O1531   2.259       .  S
Mg1517     O1519   2.252       .  S
C1518      O1556   1.270       .  A
C1518      O1524   1.271       .  A
C1518      C2042   1.442       .  S
O1519      C1526   1.267       .  A
H1520      C1533   1.081       .  S
C1521      O1535   1.235       .  S
C1521      O1536   1.271       .  A
C1521      H1546   1.081       .  S
O1522      C1545   1.271       .  A
O1523     Mg1537   2.163       .  S
O1524     Mg2238   2.289   1_545  S
C1525      O2222   1.270       .  A
C1525      O1530   1.269       .  A
C1525      C2123   1.476       .  S
C1526      O1553   1.270       .  A
C1526      C1559   1.465       .  S
Mg1527     O1534   2.167       .  S
Mg1527     O1535   2.184       .  S
Mg1527     O1528   2.248       .  S
Mg1527     O1529   2.302       .  S
Mg1527     O2240   2.282       .  S
O1529      C1533   1.268       .  A
O1530     Mg1537   2.282       .  S
O1531      C1550   1.267       .  A
O1532      C1552   1.274       .  A
O1532     Mg1548   2.306       .  S
O1534     Mg1548   2.172       .  S
O1534      C1545   1.234       .  S
O1535     Mg1554   2.172       .  S
O1536     Mg1548   2.309       .  S
Mg1537     O1553   2.281       .  S
O1538      C2209   1.270       .  A
O1538     Mg2238   2.271   1_545  S
H1539      C1544   1.081       .  S
O1540     Mg1548   2.174       .  S
O1540      C1543   1.233       .  S
H1541      C1543   1.081       .  S
H1542      C1545   1.081       .  S
O1547     Mg1554   2.308       .  S
C1550      O1555   1.272       .  A
C1550      C2044   1.438       .  S
O1551      C1552   1.271       .  A
C1552      C1955   1.484       .  S
Mg1554     O2208   2.289       .  S
Mg1554     O2222   2.271       .  S
O1556     Mg2211   2.282   1_545  S
C1557      C1558   1.386       .  A
C1557      C1562   1.405       .  A
C1558      H1577   1.088       .  S
C1558      C1559   1.384       .  A
C1559      C1560   1.419       .  A
C1560      C1561   1.424       .  A
C1560      C1567   1.403       .  A
C1561      C1562   1.414       .  A
C1561      C1566   1.418       .  A
C1562      C1563   1.406       .  A
C1563      C1564   1.394       .  A
C1564      H1574   1.083       .  S
C1564      C1565   1.404       .  A
C1565      C1566   1.428       .  A
C1565      C1572   1.414       .  A
C1566      C1569   1.419       .  A
C1567      H1575   1.083       .  S
C1567      C1568   1.397       .  A
C1568      H1576   1.083       .  S
C1568      C1569   1.409       .  A
C1569      C1570   1.410       .  A
C1570      C1632   1.478       .  S
C1570      C1571   1.405       .  A
C1571      H1578   1.086       .  S
C1571      C1572   1.404       .  A
C1572      C1692   1.491       .  S
O1579     Mg1581   2.149   1_554  S
O1579     Mg2271   2.183   1_545  S
O1579      C1614   1.238       .  S
C1580      O1593   1.236       .  S
C1580      O1617   1.271       .  A
C1580      H1619   1.081       .  S
Mg1581     O2294   2.146   1_545  S
Mg1581     O2309   2.283   1_545  S
Mg1581     O2305   2.270   1_545  S
Mg1581     O1592   2.316       .  S
O1582     Mg2308   2.147   1_545  S
O1582     Mg1607   2.136       .  S
O1582      C1603   1.232       .  S
O1583      C1614   1.273       .  A
O1583     Mg1607   2.305       .  S
C1584      O1586   1.263       .  A
C1584      O1598   1.268       .  A
C1584      C1913   1.444       .  S
O1585      C1613   1.266   1_554  A
O1585     Mg1587   2.296       .  S
O1586     Mg1618   2.225       .  S
Mg1587     O2263   2.183       .  S
Mg1587     O1593   2.123       .  S
Mg1587     O1601   2.248       .  S
Mg1587     O2273   2.262       .  S
C1588      O1626   1.269       .  A
C1588      O1594   1.270   1_556  A
C1588      C2037   1.427       .  S
O1589      C1596   1.270       .  A
O1589     Mg2271   2.262   1_545  S
H1590      C1603   1.081       .  S
C1591      O1605   1.237       .  S
C1591      O1606   1.271       .  A
C1591      H1616   1.081       .  S
O1592      C1615   1.272       .  A
O1593     Mg2291   2.145       .  S
O1594     Mg2308   2.278   1_545  S
C1595      O1608   1.268       .  A
C1595      O1600   1.262       .  A
C1596      O1623   1.265       .  A
Mg1597     O1604   2.133       .  S
Mg1597     O2289   2.188   1_545  S
Mg1597     O2282   2.241   1_545  S
Mg1597     O1599   2.287       .  S
Mg1597     O1626   2.257       .  S
O1598     Mg2281   2.241       .  S
O1599      C1603   1.265   1_556  A
O1600     Mg1607   2.249       .  S
O1601      C1620   1.268       .  A
O1602      C1622   1.263       .  A
O1602     Mg1618   2.247       .  S
O1604     Mg2302   2.151   1_545  S
O1604      C1615   1.236       .  S
O1605     Mg2281   2.188       .  S
O1605     Mg1624   2.143   1_556  S
O1606     Mg1618   2.304       .  S
Mg1607     O2277   2.145   1_545  S
Mg1607     O1623   2.239       .  S
O1608     Mg2308   2.269   1_545  S
H1609      C1614   1.081   1_556  S
O1610     Mg2265   2.146       .  S
O1610     Mg1618   2.138       .  S
O1610      C1613   1.232       .  S
H1611      C1613   1.081       .  S
H1612      C1615   1.081       .  S
O1617     Mg1624   2.312       .  S
Mg1618     O2288   2.151       .  S
C1620      O1625   1.270   1_554  A
C1620      C2039   1.427       .  S
O1621      C1622   1.267       .  A
O1621     Mg2265   2.270       .  S
C1622      C1795   1.471       .  S
Mg1624     O2266   2.147       .  S
Mg1624     O2278   2.278       .  S
Mg1624     O2292   2.269       .  S
O1625     Mg2265   2.283       .  S
O1627     Mg1629   2.152   1_556  S
O1627     Mg1635   2.135       .  S
O1627      C1662   1.233       .  S
C1628      O1641   1.234       .  S
C1628      O1665   1.268       .  A
C1628      H1667   1.081       .  S
Mg1629     O1658   2.158       .  S
Mg1629     O1673   2.286       .  S
Mg1629     O1669   2.225       .  S
Mg1629     O1640   2.306       .  S
O1630     Mg1672   2.160       .  S
O1630     Mg1655   2.170       .  S
O1630      C1651   1.237       .  S
O1631      C1662   1.268       .  A
O1631     Mg1655   2.303       .  S
C1632      O1634   1.271       .  A
C1632      O1646   1.271       .  A
O1633      C1661   1.273       .  A
O1633     Mg1635   2.322   1_554  S
O1634     Mg1666   2.284       .  S
Mg1635     O1641   2.161       .  S
Mg1635     O1649   2.277       .  S
Mg1635     O1637   2.288       .  S
C1636      O1674   1.270   1_556  A
C1636      O1642   1.267       .  A
C1636      C2036   1.440       .  S
O1637      C1644   1.272       .  A
H1638      C1651   1.081       .  S
C1639      O1653   1.235       .  S
C1639      O1654   1.271       .  A
C1639      H1664   1.081       .  S
O1640      C1663   1.269       .  A
O1641     Mg1655   2.179       .  S
O1642     Mg1672   2.285       .  S
C1643      O1656   1.267       .  A
C1643      O1648   1.269       .  A
C1643      C1911   1.462       .  S
C1644      O1671   1.270       .  A
C1644      C1771   1.477       .  S
Mg1645     O1652   2.165       .  S
Mg1645     O1653   2.129       .  S
Mg1645     O1646   2.293       .  S
Mg1645     O1647   2.320   1_554  S
Mg1645     O1674   2.281       .  S
O1647      C1651   1.274       .  A
O1648     Mg1655   2.287       .  S
O1649      C1668   1.268   1_556  A
O1650      C1670   1.272       .  A
O1650     Mg1666   2.304       .  S
O1652     Mg1666   2.166       .  S
O1652      C1663   1.234       .  S
O1653     Mg1672   2.152   1_554  S
O1654     Mg1666   2.314       .  S
Mg1655     O1671   2.268       .  S
O1656     Mg1672   2.236       .  S
H1657      C1662   1.081       .  S
O1658     Mg1666   2.174       .  S
O1658      C1661   1.235       .  S
H1659      C1661   1.081       .  S
H1660      C1663   1.081       .  S
O1665     Mg1672   2.300       .  S
C1668      O1673   1.268       .  A
C1668      C2034   1.444       .  S
O1669      C1670   1.265       .  A
O1675     Mg1677   2.164   1_554  S
O1675      C1710   1.234       .  S
C1676      O1689   1.232       .  S
C1676      O1713   1.266       .  A
C1676      H1715   1.081       .  S
Mg1677     O1721   2.277       .  S
Mg1677     O1717   2.233       .  S
Mg1677     O1688   2.285       .  S
O1678      C1699   1.242       .  S
O1679      C1710   1.270       .  A
C1680      O1682   1.278       .  A
C1680      O1694   1.269       .  A
C1680      C1773   1.484       .  S
O1681      C1709   1.275       .  A
O1681     Mg1683   2.316   1_556  S
O1682     Mg1714   2.338       .  S
Mg1683     O1689   2.158       .  S
Mg1683     O1697   2.272       .  S
Mg1683     O1685   2.298       .  S
C1684      O1722   1.265   1_554  A
C1684      C2030   1.434       .  S
O1685      C1692   1.273       .  A
H1686      C1699   1.081       .  S
C1687      O1701   1.236       .  S
C1687      O1702   1.274       .  A
C1687      H1712   1.081       .  S
O1688      C1711   1.265       .  A
O1689     Mg1703   2.169       .  S
O1690     Mg1720   2.284       .  S
C1691      O1704   1.268       .  A
C1691      O1696   1.281       .  A
C1692      O1719   1.280       .  A
Mg1693     O1700   2.148       .  S
Mg1693     O1694   2.298       .  S
Mg1693     O1695   2.340   1_556  S
Mg1693     O1722   2.258       .  S
O1695      C1699   1.280       .  A
O1696     Mg1703   2.366       .  S
O1697      C1716   1.268   1_554  A
O1698      C1718   1.283       .  A
O1698     Mg1714   2.379       .  S
O1700     Mg1714   2.164       .  S
O1700      C1711   1.232       .  S
O1701     Mg1720   2.160   1_556  S
Mg1703     O1719   2.338       .  S
O1704     Mg1720   2.226       .  S
H1705      C1710   1.081       .  S
O1706      C1709   1.239       .  S
H1707      C1709   1.081       .  S
H1708      C1711   1.081       .  S
O1713     Mg1720   2.292       .  S
C1716      C2032   1.437       .  S
O1717      C1718   1.269       .  A
C1718      C1793   1.489       .  S
O1723     Mg1725   2.133       .  S
O1723     Mg1731   2.120       .  S
O1723      C1758   1.237       .  S
C1724      O1737   1.232       .  S
C1724      O1761   1.265       .  A
C1724      H1763   1.081       .  S
Mg1725     O1754   2.154       .  S
Mg1725     O1769   2.290       .  S
Mg1725     O1765   2.225       .  S
Mg1725     O1736   2.308       .  S
O1726     Mg1768   2.171       .  S
O1726     Mg1751   2.151       .  S
O1726      C1747   1.236       .  S
O1727      C1758   1.273       .  A
O1727     Mg1751   2.317       .  S
C1728      O1730   1.266       .  A
C1728      O1742   1.267       .  A
C1728      C1992   1.472       .  S
O1729      C1757   1.276       .  A
O1729     Mg1731   2.331       .  S
O1730     Mg1762   2.273       .  S
Mg1731     O1737   2.129       .  S
Mg1731     O1745   2.245       .  S
Mg1731     O1733   2.254       .  S
C1732      O1770   1.270       .  A
C1732      O1738   1.271       .  A
C1732      C2027   1.431       .  S
O1733      C1740   1.265       .  A
H1734      C1747   1.081       .  S
C1735      O1749   1.236       .  S
C1735      O1750   1.272       .  A
C1735      H1760   1.081   1_545  S
O1736      C1759   1.268       .  A
O1737     Mg1751   2.170       .  S
O1738     Mg2452   2.288       .  S
C1739      O1752   1.269       .  A
C1739      O2428   1.266       .  A
C1739      C1806   1.458       .  S
C1740      O1767   1.264       .  A
C1740      C1786   1.466       .  S
Mg1741     O1748   2.146       .  S
Mg1741     O1749   2.133       .  S
Mg1741     O1742   2.261       .  S
Mg1741     O1743   2.302       .  S
Mg1741     O2454   2.258   1_545  S
O1743      C1747   1.271       .  A
O1744      C2423   1.266   1_545  A
O1744     Mg1751   2.265       .  S
O1745      C1764   1.265       .  A
O1746      C1766   1.266       .  A
O1746     Mg1762   2.267       .  S
O1748     Mg1762   2.161       .  S
O1748      C1759   1.233       .  S
O1749     Mg1768   2.128       .  S
O1750     Mg1762   2.309       .  S
Mg1751     O1767   2.257       .  S
O1752     Mg2452   2.229       .  S
H1753      C1758   1.081       .  S
O1754     Mg1762   2.175       .  S
O1754      C1757   1.238       .  S
H1755      C1757   1.081       .  S
H1756      C1759   1.081       .  S
O1761     Mg1768   2.287       .  S
C1764      O1769   1.268       .  A
C1764      C2026   1.432       .  S
O1765      C1766   1.264       .  A
C1766      C1968   1.448       .  S
Mg1768     O2422   2.288   1_545  S
Mg1768     O2436   2.229   1_545  S
O1770     Mg2425   2.258       .  S
C1771      C1772   1.399       .  A
C1771      C1776   1.405       .  A
C1772      H1791   1.086       .  S
C1772      C1773   1.402       .  A
C1773      C1774   1.420       .  A
C1774      C1775   1.424       .  A
C1774      C1781   1.407       .  A
C1775      C1776   1.423       .  A
C1775      C1780   1.420       .  A
C1776      C1777   1.403       .  A
C1777      H1787   1.082       .  S
C1777      C1778   1.386       .  A
C1778      H1788   1.083       .  S
C1778      C1779   1.403       .  A
C1779      C1780   1.420       .  A
C1779      C1786   1.403       .  A
C1780      C1783   1.425       .  A
C1781      H1789   1.083       .  S
C1781      C1782   1.404       .  A
C1782      C1783   1.409       .  A
C1783      C1784   1.426       .  A
C1784      C1831   1.484       .  S
C1784      C1785   1.398       .  A
C1785      H1792   1.086       .  S
C1785      C1786   1.394       .  A
C1793      C1794   1.404       .  A
C1793      C1798   1.428       .  A
C1794      H1813   1.086       .  S
C1794      C1795   1.399       .  A
C1795      C1796   1.401       .  A
C1796      C1797   1.419       .  A
C1796      C1803   1.405       .  A
C1797      C1798   1.425       .  A
C1797      C1802   1.419       .  A
C1798      C1799   1.411       .  A
C1799      H1809   1.082       .  S
C1799      C1800   1.406       .  A
C1800      C1801   1.407       .  A
C1801      C1802   1.420       .  A
C1801      C1808   1.423       .  A
C1802      C1805   1.420       .  A
C1803      H1811   1.083       .  S
C1803      C1804   1.388       .  A
C1804      H2496   1.083       .  S
C1804      C1805   1.401       .  A
C1805      C1806   1.404       .  A
C1806      C1807   1.381       .  A
C1807      H1814   1.089       .  S
C1807      C1808   1.388       .  A
C1808      C1906   1.461       .  S
H1812      C2488   1.083   1_545  S
O1815     Mg1817   2.173       .  S
O1815     Mg1823   2.139       .  S
O1815      C1850   1.234       .  S
C1816      O1829   1.232       .  S
C1816      O1853   1.265       .  A
C1816      H1855   1.081       .  S
Mg1817     O1846   2.178       .  S
Mg1817     O2545   2.271   1_545  S
Mg1817     O1857   2.236       .  S
Mg1817     O1828   2.289       .  S
O1818     Mg1860   2.177       .  S
O1818     Mg1843   2.190       .  S
O1818      C1839   1.241       .  S
O1819      C1850   1.270       .  A
O1819     Mg1843   2.316       .  S
C1820      O1822   1.280       .  A
C1820      O1834   1.271       .  A
C1820      C1946   1.490       .  S
O1821      C1849   1.275       .  A
O1821     Mg1823   2.320       .  S
O1822     Mg1854   2.346       .  S
Mg1823     O1829   2.144       .  S
Mg1823     O2521   2.253   1_545  S
Mg1823     O2509   2.305   1_545  S
C1824      O1862   1.265       .  A
C1824      O1830   1.265       .  A
C1824      C2023   1.429       .  S
O1825      C2516   1.273       .  A
O1825     Mg2507   2.305       .  S
H1826      C1839   1.081       .  S
C1827      O1841   1.234       .  S
C1827      O1842   1.272       .  A
C1827      H1852   1.081   1_655  S
O1828      C1851   1.266       .  A
O1829     Mg1843   2.166       .  S
C1831      O1844   1.267       .  A
C1832      O2509   1.273       .  A
C1832      O1859   1.280   1_565  A
C1832      C2608   1.492       .  S
Mg1833     O1840   2.147       .  S
Mg1833     O1841   2.123       .  S
Mg1833     O1834   2.310       .  S
Mg1833     O1835   2.334       .  S
O1835      C1839   1.279       .  A
O1836     Mg1843   2.362       .  S
O1837      C1856   1.266       .  A
O1837     Mg2507   2.253       .  S
O1838      C1858   1.282       .  A
O1838     Mg1854   2.370       .  S
O1840     Mg1854   2.163       .  S
O1840      C1851   1.233       .  S
O1841     Mg1860   2.163       .  S
O1842     Mg1854   2.320       .  S
Mg1843     O1859   2.335       .  S
H1845      C1850   1.081       .  S
O1846     Mg1854   2.184       .  S
O1846      C1849   1.239       .  S
H1847      C1849   1.081       .  S
H1848      C1851   1.081       .  S
O1853     Mg1860   2.287       .  S
C1856      O1861   1.266       .  A
C1856      C2021   1.430       .  S
O1857      C1858   1.269       .  A
C1858      C1990   1.485       .  S
O1861     Mg2501   2.271       .  S
O1863     Mg1865   2.161       .  S
O1863     Mg1871   2.134       .  S
O1863      C1898   1.234       .  S
C1864      O1877   1.233       .  S
C1864      O1901   1.267       .  A
C1864      H1903   1.081       .  S
Mg1865     O1894   2.161       .  S
Mg1865     O1876   2.310       .  S
O1866     Mg1908   2.170       .  S
O1866     Mg1891   2.171       .  S
O1866      C1887   1.236       .  S
O1867      C1898   1.270       .  A
O1867     Mg1891   2.314       .  S
C1868      O1870   1.272       .  A
C1868      O1882   1.271       .  A
C1868      C1926   1.480       .  S
O1869      C1897   1.275       .  A
O1869     Mg1871   2.332       .  S
O1870     Mg1902   2.297       .  S
Mg1871     O1877   2.155       .  S
Mg1871     O1873   2.284       .  S
C1872      O1910   1.272       .  A
C1872      O1878   1.269       .  A
C1872      C2019   1.444       .  S
O1873      C1880   1.270       .  A
H1874      C1887   1.081       .  S
C1875      O1889   1.234       .  S
C1875      O1890   1.271       .  A
C1875      H1900   1.081       .  S
O1876      C1899   1.269       .  A
O1877     Mg1891   2.176       .  S
O1878     Mg1908   2.286       .  S
C1879      O1892   1.269       .  A
C1879      O1884   1.269       .  A
C1879      C1970   1.466       .  S
C1880      O1907   1.270       .  A
C1880      C1948   1.479       .  S
Mg1881     O1888   2.173       .  S
Mg1881     O1889   2.131       .  S
Mg1881     O1882   2.282       .  S
Mg1881     O1883   2.315       .  S
Mg1881     O1910   2.292       .  S
O1883      C1887   1.273       .  A
O1884     Mg1891   2.295       .  S
O1885      C1904   1.267       .  A
O1886     Mg1902   2.308       .  S
O1888     Mg1902   2.170       .  S
O1888      C1899   1.233       .  S
O1889     Mg1908   2.149       .  S
O1890     Mg1902   2.313       .  S
Mg1891     O1907   2.276       .  S
O1892     Mg1908   2.231       .  S
H1893      C1898   1.081   1_455  S
O1894     Mg1902   2.189       .  S
O1894      C1897   1.237       .  S
H1895      C1897   1.081       .  S
H1896      C1899   1.081       .  S
O1901     Mg1908   2.293       .  S
C1904      O1909   1.268       .  A
C1904      C2017   1.445       .  S
O1905      C1906   1.266       .  A
C1911      C1912   1.381       .  A
C1911      C1916   1.416       .  A
C1912      H1931   1.088       .  S
C1912      C1913   1.384       .  A
C1913      C1914   1.407       .  A
C1914      C1915   1.414       .  A
C1914      C1921   1.405       .  A
C1915      C1916   1.423       .  A
C1915      C1920   1.417       .  A
C1916      C1917   1.402       .  A
C1917      H1927   1.083       .  S
C1917      C1918   1.396       .  A
C1918      H1928   1.083       .  S
C1918      C1919   1.409       .  A
C1919      C1920   1.419       .  A
C1919      C1926   1.409       .  A
C1920      C1923   1.427       .  A
C1921      H1929   1.083       .  S
C1921      C1922   1.395       .  A
C1922      H2614   1.083       .  S
C1922      C1923   1.405       .  A
C1923      C1924   1.415       .  A
C1924      C2516   1.492       .  S
C1924      C1925   1.406       .  A
C1925      H1932   1.085       .  S
C1925      C1926   1.407       .  A
H1930      C2606   1.083       .  S
C1933      C1934   1.394       .  A
C1933      C1938   1.403       .  A
C1934      H1953   1.086       .  S
C1934      C1935   1.394       .  A
C1935      C1936   1.427       .  A
C1936      C1937   1.424       .  A
C1936      C1943   1.409       .  A
C1937      C1938   1.419       .  A
C1938      C1939   1.403       .  A
C1939      H1949   1.083       .  S
C1940      H1950   1.082       .  S
C1940      C1941   1.403       .  A
C1941      C1942   1.423       .  A
C1941      C1948   1.405       .  A
C1942      C1945   1.425       .  A
C1943      H1951   1.083       .  S
C1944      H1952   1.083   1_455  S
C1944      C1945   1.408   1_455  A
C1945      C1946   1.424       .  A
C1946      C1947   1.405       .  A
C1947      H1954   1.086       .  S
C1947      C1948   1.400       .  A
C1955      C1956   1.407       .  A
C1955      C1960   1.412       .  A
C1956      H1975   1.086       .  S
C1956      C1957   1.406       .  A
C1957      C1958   1.412       .  A
C1958      C1959   1.427       .  A
C1958      C1965   1.405       .  A
C1959      C1960   1.422       .  A
C1959      C1964   1.418       .  A
C1960      C1961   1.408       .  A
C1961      H1971   1.083       .  S
C1961      C1962   1.398       .  A
C1962      H1972   1.083       .  S
C1962      C1963   1.404       .  A
C1963      C1964   1.424       .  A
C1963      C1970   1.418       .  A
C1964      C1967   1.417       .  A
C1965      H1973   1.083       .  S
C1965      C1966   1.393       .  A
C1966      H1974   1.083       .  S
C1966      C1967   1.404       .  A
C1967      C1968   1.406       .  A
C1968      C1969   1.384       .  A
C1969      H1976   1.089       .  S
C1969      C1970   1.383       .  A
C1977      C1978   1.380       .  A
C1977      C1982   1.401       .  A
C1978      H1997   1.088       .  S
C1978      C1979   1.388       .  A
C1979      C1980   1.428       .  A
C1980      C1981   1.422       .  A
C1980      C1987   1.407       .  A
C1981      C1982   1.417       .  A
C1981      C2670   1.420       .  A
C1982      C1983   1.402       .  A
C1983      H1993   1.083       .  S
C1983      C2668   1.386       .  A
C1984      H1994   1.083       .  S
C1984      C2667   1.386   1_545  A
C1984      C1985   1.403       .  A
C1985      C1986   1.421       .  A
C1985      C1992   1.403       .  A
C1986      C2665   1.420   1_545  A
C1986      C1989   1.423       .  A
C1987      H1995   1.083       .  S
C1987      C2672   1.409       .  A
C1988      H1996   1.082       .  S
C1988      C2671   1.409   1_545  A
C1988      C1989   1.412       .  A
C1989      C1990   1.429       .  A
C1990      C1991   1.402       .  A
C1991      H1998   1.086       .  S
C1991      C1992   1.397       .  A
C1999      C2684   1.414   1_556  A
C2000      C2724   1.441       .  S
C2000      C2683   1.414   1_554  A
C2000      C2001   1.416   1_565  A
C2001      C2033   1.460       .  S
C2001      C2002   1.407       .  A
C2002      C2029   1.454       .  S
C2003      C2038   1.443       .  S
C2003      C2688   1.413   1_545  A
C2004      C2035   1.456       .  S
C2004      C2687   1.413       .  A
C2005      C2041   1.457       .  S
C2005      C2006   1.406       .  A
C2005      C2010   1.417       .  A
C2006      C2052   1.460       .  S
C2006      C2007   1.411       .  A
C2007      C2048   1.443       .  S
C2007      C2008   1.416       .  A
C2008      C2043   1.453       .  S
C2008      C2009   1.407       .  A
C2009      C2050   1.462       .  S
C2009      C2010   1.413       .  A
C2010      C2046   1.441       .  S
C2011      C2028   1.446       .  S
C2011      C2012   1.414       .  A
C2011      C2016   1.413       .  A
C2012      C2018   1.460       .  S
C2012      C2013   1.407       .  A
C2013      C2024   1.450       .  S
C2013      C2014   1.412       .  A
C2014      C2025   1.446       .  S
C2014      C2015   1.414       .  A
C2015      C2020   1.460       .  S
C2015      C2016   1.408       .  A
C2016      C2022   1.450       .  S
C2017      C2018   1.213       .  T
C2019      C2020   1.212       .  T
C2021      C2022   1.204       .  T
C2023      C2024   1.203       .  T
C2025      C2026   1.205       .  T
C2027      C2028   1.204       .  T
C2029      C2030   1.206       .  T
C2031      C2032   1.208       .  T
C2033      C2034   1.212       .  T
C2035      C2036   1.210       .  T
C2037      C2038   1.202       .  T
C2039      C2040   1.202       .  T
C2040      C2684   1.441       .  S
C2041      C2042   1.211       .  T
C2043      C2044   1.208       .  T
C2045      C2046   1.202       .  T
C2047      C2048   1.202       .  T
C2049      C2050   1.211       .  T
C2051      C2052   1.209       .  T
O2053     Mg2055   2.174       .  S
O2053     Mg2061   2.173       .  S
O2053      C2088   1.232       .  S
C2054      O2067   1.234       .  S
C2054      O2091   1.269       .  A
C2054      H2093   1.081       .  S
Mg2055     O2084   2.165       .  S
Mg2055     O2066   2.295       .  S
O2056     Mg2098   2.160       .  S
O2056     Mg2081   2.176       .  S
O2056      C2077   1.236       .  S
O2057      C2088   1.268       .  A
O2057     Mg2081   2.302       .  S
C2058      O2060   1.280       .  A
C2058      O2072   1.270       .  A
C2058      C2101   1.483       .  S
O2059      C2087   1.271       .  A
O2059     Mg2061   2.304       .  S
O2060     Mg2092   2.333       .  S
Mg2061     O2067   2.168       .  S
Mg2061     O2063   2.279       .  S
C2062      O2100   1.268       .  A
C2062      O2068   1.269       .  A
C2062      C2733   1.442       .  S
O2063      C2070   1.271       .  A
H2064      C2077   1.081       .  S
C2065      O2079   1.235       .  S
C2065      O2080   1.271       .  A
C2065      H2090   1.081       .  S
O2066      C2089   1.268       .  A
O2067     Mg2081   2.184       .  S
O2068     Mg2098   2.292       .  S
C2069      O2082   1.271       .  A
C2069      O2074   1.280       .  A
C2069      C2641   1.490       .  S
C2070      O2097   1.279       .  A
C2070      C2619   1.479       .  S
Mg2071     O2078   2.162       .  S
Mg2071     O2079   2.164       .  S
Mg2071     O2072   2.273       .  S
Mg2071     O2073   2.316       .  S
Mg2071     O2100   2.277       .  S
O2073      C2077   1.273       .  A
O2074     Mg2081   2.351       .  S
O2075      C2094   1.269       .  A
O2076      C2096   1.285       .  A
O2076     Mg2092   2.376       .  S
O2078     Mg2092   2.180       .  S
O2078      C2089   1.233       .  S
O2079     Mg2098   2.184       .  S
O2080     Mg2092   2.316       .  S
Mg2081     O2097   2.322       .  S
O2082     Mg2098   2.266       .  S
H2083      C2088   1.081       .  S
O2084     Mg2092   2.166       .  S
O2084      C2087   1.236       .  S
H2085      C2087   1.081       .  S
H2086      C2089   1.081       .  S
O2091     Mg2098   2.302       .  S
C2094      O2099   1.269       .  A
C2094      C2735   1.438       .  S
C2101      C2102   1.397       .  A
C2101      C2106   1.426       .  A
C2102      H2121   1.086       .  S
C2102      C2103   1.399       .  A
C2103      C2104   1.402       .  A
C2104      C2105   1.417       .  A
C2104      C2111   1.406       .  A
C2105      C2106   1.424       .  A
C2105      C2110   1.419       .  A
C2106      C2107   1.409       .  A
C2107      H2117   1.083       .  S
C2107      C2108   1.404       .  A
C2108      H2118   1.083       .  S
C2108      C2109   1.407       .  A
C2109      C2110   1.418       .  A
C2109      C2116   1.420       .  A
C2110      C2113   1.419       .  A
C2111      C2112   1.388       .  A
C2112      H2120   1.083       .  S
C2112      C2113   1.402       .  A
C2113      C2114   1.406       .  A
C2114      C2280   1.457       .  S
C2114      C2115   1.383       .  A
C2115      H2122   1.088       .  S
C2115      C2116   1.390       .  A
C2116      C2354   1.459       .  S
C2123      C2124   1.398       .  A
C2123      C2128   1.401       .  A
C2124      H2143   1.086       .  S
C2124      C2125   1.405       .  A
C2125      C2126   1.424       .  A
C2126      C2127   1.426       .  A
C2126      C2133   1.407       .  A
C2127      C2128   1.423       .  A
C2127      C2132   1.419       .  A
C2128      C2129   1.403       .  A
C2129      C2130   1.385       .  A
C2130      H2140   1.083       .  S
C2130      C2131   1.402       .  A
C2131      C2132   1.421       .  A
C2131      C2138   1.400       .  A
C2132      C2135   1.424       .  A
C2133      C2134   1.407       .  A
C2134      H2142   1.082       .  S
C2134      C2135   1.410       .  A
C2135      C2136   1.427       .  A
C2136      C2375   1.484       .  S
C2136      C2137   1.400       .  A
C2137      H2144   1.086       .  S
C2137      C2138   1.393       .  A
C2138      C2279   1.468       .  S
O2145     Mg2147   2.124       .  S
O2145     Mg2153   2.123       .  S
O2145      C2180   1.236       .  S
C2146      O2159   1.233       .  S
C2146      O2183   1.266       .  A
C2146      H2185   1.081       .  S
Mg2147     O2176   2.158       .  S
Mg2147     O2158   2.299       .  S
O2148     Mg2190   2.169       .  S
O2148     Mg2173   2.146       .  S
O2148      C2169   1.236       .  S
O2149      C2180   1.271       .  A
O2149     Mg2173   2.308       .  S
C2150      O2152   1.263       .  A
O2151      C2179   1.273       .  A
O2151     Mg2153   2.319       .  S
O2152     Mg2184   2.244       .  S
Mg2153     O2159   2.130       .  S
Mg2153     O2155   2.265       .  S
C2154      O2192   1.268       .  A
C2154      O2160   1.270       .  A
C2154      C2729   1.427       .  S
O2155      C2162   1.267       .  A
H2156      C2169   1.081       .  S
C2157      O2171   1.235       .  S
C2157      O2172   1.270       .  A
C2157      H2182   1.081       .  S
O2158      C2181   1.267       .  A
O2159     Mg2173   2.164       .  S
C2161      O2174   1.267       .  A
C2161      O2166   1.263       .  A
C2161      C2661   1.450       .  S
C2162      O2189   1.263       .  A
C2162      C2617   1.463       .  S
Mg2163     O2170   2.134       .  S
Mg2163     O2171   2.128       .  S
Mg2163     O2165   2.304       .  S
O2165      C2169   1.271       .  A
O2166     Mg2173   2.245       .  S
O2167      C2186   1.266       .  A
O2168     Mg2184   2.246       .  S
O2170     Mg2184   2.160       .  S
O2170      C2181   1.233       .  S
O2171     Mg2190   2.113       .  S
O2172     Mg2184   2.303       .  S
Mg2173     O2189   2.241       .  S
O2174     Mg2190   2.219       .  S
H2175      C2180   1.081       .  S
O2176     Mg2184   2.156       .  S
O2176      C2179   1.236       .  S
H2177      C2179   1.081       .  S
H2178      C2181   1.081       .  S
O2183     Mg2190   2.291       .  S
C2186      O2191   1.268       .  A
C2186      C2731   1.427       .  S
O2187      C2188   1.265       .  A
C2188      C2241   1.446       .  S
O2193     Mg2195   2.169       .  S
O2193     Mg2201   2.192       .  S
O2193      C2228   1.236       .  S
C2194      O2207   1.234       .  S
C2194      O2231   1.270       .  A
C2194      H2233   1.081       .  S
Mg2195     O2224   2.157       .  S
Mg2195     O2239   2.302       .  S
Mg2195     O2235   2.276       .  S
Mg2195     O2206   2.317       .  S
O2196     Mg2238   2.146       .  S
O2196     Mg2221   2.160       .  S
O2196      C2217   1.232   1_565  S
O2197      C2228   1.271       .  A
O2197     Mg2221   2.305       .  S
C2198      O2200   1.274       .  A
C2198      O2212   1.267       .  A
C2198      C2663   1.465       .  S
O2199      C2227   1.268       .  A
O2199     Mg2201   2.301       .  S
O2200     Mg2232   2.300       .  S
Mg2201     O2207   2.140       .  S
Mg2201     O2215   2.259       .  S
Mg2201     O2203   2.252       .  S
C2202      O2240   1.270       .  A
C2202      O2208   1.271       .  A
C2202      C2726   1.442       .  S
O2203      C2210   1.267       .  A
H2204      C2217   1.081       .  S
C2205      O2219   1.235       .  S
C2205      O2220   1.271       .  A
C2205      H2230   1.081       .  S
O2206      C2229   1.271       .  A
O2207     Mg2221   2.163       .  S
C2209      O2214   1.269   1_545  A
C2210      O2237   1.270       .  A
C2210      C2243   1.465       .  S
Mg2211     O2218   2.167       .  S
Mg2211     O2219   2.184       .  S
Mg2211     O2212   2.248       .  S
Mg2211     O2213   2.302   1_565  S
O2213      C2217   1.268       .  A
O2214     Mg2221   2.282       .  S
O2215      C2234   1.267       .  A
O2216      C2236   1.274       .  A
O2216     Mg2232   2.306       .  S
O2218     Mg2232   2.172       .  S
O2218      C2229   1.234       .  S
O2219     Mg2238   2.172       .  S
O2220     Mg2232   2.309       .  S
Mg2221     O2237   2.281       .  S
H2223      C2228   1.081       .  S
O2224     Mg2232   2.174       .  S
O2224      C2227   1.233       .  S
H2225      C2227   1.081       .  S
H2226      C2229   1.081       .  S
O2231     Mg2238   2.308       .  S
C2234      O2239   1.272       .  A
C2234      C2728   1.438       .  S
O2235      C2236   1.271       .  A
C2236      C2639   1.484       .  S
C2241      C2242   1.386       .  A
C2241      C2246   1.405       .  A
C2242      H2261   1.088       .  S
C2242      C2243   1.384       .  A
C2243      C2244   1.419       .  A
C2244      C2245   1.424       .  A
C2244      C2251   1.403       .  A
C2245      C2246   1.414       .  A
C2245      C2250   1.418       .  A
C2246      C2247   1.406       .  A
C2247      C2248   1.394       .  A
C2248      H2258   1.083       .  S
C2248      C2249   1.404       .  A
C2249      C2250   1.428       .  A
C2249      C2256   1.414       .  A
C2250      C2253   1.419       .  A
C2251      H2259   1.083       .  S
C2251      C2252   1.397       .  A
C2252      H2260   1.083       .  S
C2252      C2253   1.409       .  A
C2253      C2254   1.410       .  A
C2254      C2316   1.478       .  S
C2254      C2255   1.405       .  A
C2255      H2262   1.086       .  S
C2255      C2256   1.404       .  A
C2256      C2376   1.491       .  S
O2263     Mg2265   2.149   1_554  S
O2263      C2298   1.238       .  S
C2264      O2277   1.236       .  S
C2264      O2301   1.271       .  A
C2264      H2303   1.081       .  S
Mg2265     O2276   2.316       .  S
O2266     Mg2291   2.136       .  S
O2266      C2287   1.232       .  S
O2267      C2298   1.273       .  A
O2267     Mg2291   2.305       .  S
C2268      O2270   1.263       .  A
C2268      O2282   1.268       .  A
C2268      C2597   1.444       .  S
O2269      C2297   1.266   1_554  A
O2269     Mg2271   2.296       .  S
O2270     Mg2302   2.225       .  S
Mg2271     O2277   2.123       .  S
Mg2271     O2285   2.248   1_565  S
C2272      O2310   1.269       .  A
C2272      O2278   1.270   1_556  A
C2272      C2721   1.427       .  S
O2273      C2280   1.270       .  A
H2274      C2287   1.081       .  S
C2275      O2289   1.237       .  S
C2275      O2290   1.271       .  A
C2275      H2300   1.081       .  S
O2276      C2299   1.272       .  A
C2279      O2292   1.268       .  A
C2279      O2284   1.262       .  A
C2280      O2307   1.265       .  A
Mg2281     O2288   2.133       .  S
Mg2281     O2283   2.287       .  S
Mg2281     O2310   2.257       .  S
O2283      C2287   1.265   1_556  A
O2284     Mg2291   2.249       .  S
O2285      C2304   1.268   1_545  A
O2286      C2306   1.263       .  A
O2286     Mg2302   2.247       .  S
O2288      C2299   1.236       .  S
O2289     Mg2308   2.143   1_556  S
O2290     Mg2302   2.304       .  S
Mg2291     O2307   2.239       .  S
H2293      C2298   1.081   1_556  S
O2294     Mg2302   2.138       .  S
O2294      C2297   1.232       .  S
H2295      C2297   1.081       .  S
H2296      C2299   1.081       .  S
O2301     Mg2308   2.312       .  S
C2304      O2309   1.270   1_554  A
C2304      C2723   1.427       .  S
O2305      C2306   1.267       .  A
C2306      C2479   1.471       .  S
O2311     Mg2313   2.152   1_556  S
O2311     Mg2319   2.135       .  S
O2311      C2346   1.233       .  S
C2312      O2325   1.234       .  S
C2312      O2349   1.268       .  A
C2312      H2351   1.081       .  S
Mg2313     O2342   2.158       .  S
Mg2313     O2357   2.286       .  S
Mg2313     O2353   2.225       .  S
Mg2313     O2324   2.306       .  S
O2314     Mg2356   2.160       .  S
O2314     Mg2339   2.170       .  S
O2314      C2335   1.237       .  S
O2315      C2346   1.268       .  A
O2315     Mg2339   2.303       .  S
C2316      O2318   1.271       .  A
C2316      O2330   1.271       .  A
O2317      C2345   1.273       .  A
O2317     Mg2319   2.322   1_554  S
O2318     Mg2350   2.284       .  S
Mg2319     O2325   2.161       .  S
Mg2319     O2333   2.277       .  S
Mg2319     O2321   2.288       .  S
C2320      O2358   1.270   1_556  A
C2320      O2326   1.267       .  A
C2320      C2720   1.440       .  S
O2321      C2328   1.272       .  A
H2322      C2335   1.081       .  S
C2323      O2337   1.235       .  S
C2323      O2338   1.271       .  A
C2323      H2348   1.081       .  S
O2324      C2347   1.269       .  A
O2325     Mg2339   2.179       .  S
O2326     Mg2356   2.285       .  S
C2327      O2340   1.267       .  A
C2327      O2332   1.269       .  A
C2327      C2595   1.462       .  S
C2328      O2355   1.270       .  A
C2328      C2455   1.477       .  S
Mg2329     O2336   2.165       .  S
Mg2329     O2337   2.129       .  S
Mg2329     O2330   2.293       .  S
Mg2329     O2331   2.320   1_554  S
Mg2329     O2358   2.281       .  S
O2331      C2335   1.274       .  A
O2332     Mg2339   2.287       .  S
O2333      C2352   1.268   1_556  A
O2334      C2354   1.272       .  A
O2334     Mg2350   2.304       .  S
O2336     Mg2350   2.166       .  S
O2336      C2347   1.234       .  S
O2337     Mg2356   2.152   1_554  S
O2338     Mg2350   2.314       .  S
Mg2339     O2355   2.268       .  S
O2340     Mg2356   2.236       .  S
H2341      C2346   1.081       .  S
O2342     Mg2350   2.174       .  S
O2342      C2345   1.235       .  S
H2343      C2345   1.081       .  S
H2344      C2347   1.081       .  S
O2349     Mg2356   2.300       .  S
C2352      O2357   1.268       .  A
C2352      C2718   1.444       .  S
O2353      C2354   1.265       .  A
O2359     Mg2361   2.164   1_554  S
O2359      C2394   1.234       .  S
C2360      O2373   1.232       .  S
C2360      O2397   1.266       .  A
C2360      H2399   1.081       .  S
Mg2361     O2405   2.277       .  S
Mg2361     O2401   2.233       .  S
Mg2361     O2372   2.285       .  S
O2362      C2383   1.242       .  S
O2363      C2394   1.270       .  A
C2364      O2366   1.278       .  A
C2364      O2378   1.269       .  A
C2364      C2457   1.484       .  S
O2365      C2393   1.275       .  A
O2365     Mg2367   2.316   1_556  S
O2366     Mg2398   2.338       .  S
Mg2367     O2373   2.158       .  S
Mg2367     O2381   2.272       .  S
Mg2367     O2369   2.298       .  S
C2368      O2406   1.265   1_554  A
C2368      C2714   1.434       .  S
O2369      C2376   1.273       .  A
H2370      C2383   1.081       .  S
C2371      O2385   1.236       .  S
C2371      O2386   1.274       .  A
C2371      H2396   1.081       .  S
O2372      C2395   1.265       .  A
O2373     Mg2387   2.169       .  S
O2374     Mg2404   2.284       .  S
C2375      O2388   1.268       .  A
C2375      O2380   1.281       .  A
C2376      O2403   1.280       .  A
Mg2377     O2384   2.148       .  S
Mg2377     O2378   2.298       .  S
Mg2377     O2379   2.340   1_556  S
Mg2377     O2406   2.258       .  S
O2379      C2383   1.280       .  A
O2380     Mg2387   2.366       .  S
O2381      C2400   1.268   1_554  A
O2382      C2402   1.283       .  A
O2382     Mg2398   2.379       .  S
O2384     Mg2398   2.164       .  S
O2384      C2395   1.232       .  S
O2385     Mg2404   2.160   1_556  S
Mg2387     O2403   2.338       .  S
O2388     Mg2404   2.226       .  S
H2389      C2394   1.081       .  S
O2390      C2393   1.239       .  S
H2391      C2393   1.081       .  S
H2392      C2395   1.081       .  S
O2397     Mg2404   2.292       .  S
C2400      C2716   1.437       .  S
O2401      C2402   1.269       .  A
C2402      C2477   1.489       .  S
O2407     Mg2409   2.133       .  S
O2407     Mg2415   2.120       .  S
O2407      C2442   1.237       .  S
C2408      O2421   1.232       .  S
C2408      O2445   1.265       .  A
C2408      H2447   1.081       .  S
Mg2409     O2438   2.154       .  S
Mg2409     O2453   2.290       .  S
Mg2409     O2449   2.225       .  S
Mg2409     O2420   2.308       .  S
O2410     Mg2452   2.171       .  S
O2410     Mg2435   2.151       .  S
O2410      C2431   1.236       .  S
O2411      C2442   1.273       .  A
O2411     Mg2435   2.316       .  S
C2412      O2414   1.266       .  A
C2412      O2426   1.267       .  A
C2412      C2676   1.472       .  S
O2413      C2441   1.276       .  A
O2413     Mg2415   2.331       .  S
O2414     Mg2446   2.273       .  S
Mg2415     O2421   2.129       .  S
Mg2415     O2429   2.245       .  S
Mg2415     O2417   2.254       .  S
C2416      O2454   1.270       .  A
C2416      O2422   1.271       .  A
C2416      C2711   1.431       .  S
O2417      C2424   1.265       .  A
H2418      C2431   1.081       .  S
C2419      O2433   1.236       .  S
C2419      O2434   1.272       .  A
C2419      H2444   1.081       .  S
O2420      C2443   1.268       .  A
O2421     Mg2435   2.170       .  S
C2423      O2436   1.269       .  A
C2423      C2490   1.458       .  S
C2424      O2451   1.264       .  A
C2424      C2470   1.466       .  S
Mg2425     O2432   2.146       .  S
Mg2425     O2433   2.133       .  S
Mg2425     O2426   2.261       .  S
Mg2425     O2427   2.302       .  S
O2427      C2431   1.271       .  A
O2428     Mg2435   2.265       .  S
O2429      C2448   1.265       .  A
O2430      C2450   1.266       .  A
O2430     Mg2446   2.267       .  S
O2432     Mg2446   2.161       .  S
O2432      C2443   1.233       .  S
O2433     Mg2452   2.128       .  S
O2434     Mg2446   2.309       .  S
Mg2435     O2451   2.257       .  S
H2437      C2442   1.081       .  S
O2438     Mg2446   2.175       .  S
O2438      C2441   1.238       .  S
H2439      C2441   1.081       .  S
H2440      C2443   1.081       .  S
O2445     Mg2452   2.287       .  S
C2448      O2453   1.268       .  A
C2448      C2710   1.432       .  S
O2449      C2450   1.264       .  A
C2450      C2652   1.448       .  S
C2455      C2456   1.399       .  A
C2455      C2460   1.405       .  A
C2456      H2475   1.086       .  S
C2456      C2457   1.402       .  A
C2457      C2458   1.420       .  A
C2458      C2459   1.424       .  A
C2458      C2465   1.407       .  A
C2459      C2460   1.423       .  A
C2459      C2464   1.420       .  A
C2460      C2461   1.403       .  A
C2461      H2471   1.082       .  S
C2461      C2462   1.386       .  A
C2462      H2472   1.083       .  S
C2462      C2463   1.403       .  A
C2463      C2464   1.420       .  A
C2463      C2470   1.403       .  A
C2464      C2467   1.425       .  A
C2465      H2473   1.083       .  S
C2465      C2466   1.404       .  A
C2466      C2467   1.409       .  A
C2467      C2468   1.426       .  A
C2468      C2515   1.484       .  S
C2468      C2469   1.398       .  A
C2469      H2476   1.086       .  S
C2469      C2470   1.394       .  A
C2477      C2478   1.404       .  A
C2477      C2482   1.428       .  A
C2478      H2497   1.086       .  S
C2478      C2479   1.399       .  A
C2479      C2480   1.401       .  A
C2480      C2481   1.419       .  A
C2480      C2487   1.405       .  A
C2481      C2482   1.425       .  A
C2481      C2486   1.419       .  A
C2482      C2483   1.411       .  A
C2483      H2493   1.082       .  S
C2483      C2484   1.406       .  A
C2484      C2485   1.407       .  A
C2485      C2486   1.420       .  A
C2485      C2492   1.423       .  A
C2486      C2489   1.420       .  A
C2487      H2495   1.083   1_565  S
C2487      C2488   1.388       .  A
C2488      C2489   1.401       .  A
C2489      C2490   1.404       .  A
C2490      C2491   1.381       .  A
C2491      H2498   1.089       .  S
C2491      C2492   1.388       .  A
C2492      C2590   1.461       .  S
O2499     Mg2501   2.173       .  S
O2499     Mg2507   2.139       .  S
O2499      C2534   1.234       .  S
C2500      O2513   1.232       .  S
C2500      O2537   1.265       .  A
C2500      H2539   1.081       .  S
Mg2501     O2530   2.178       .  S
Mg2501     O2541   2.236       .  S
Mg2501     O2512   2.289       .  S
O2502     Mg2544   2.177       .  S
O2502     Mg2527   2.190       .  S
O2502      C2523   1.241       .  S
O2503      C2534   1.270       .  A
O2503     Mg2527   2.316       .  S
C2504      O2506   1.280       .  A
C2504      O2518   1.271       .  A
C2504      C2630   1.490       .  S
O2505      C2533   1.275       .  A
O2505     Mg2507   2.320       .  S
O2506     Mg2538   2.346       .  S
Mg2507     O2513   2.144       .  S
C2508      O2546   1.265       .  A
C2508      O2514   1.265       .  A
C2508      C2707   1.429       .  S
H2510      C2523   1.081       .  S
C2511      O2525   1.234       .  S
C2511      O2526   1.272       .  A
C2511      H2536   1.081   1_655  S
O2512      C2535   1.266       .  A
O2513     Mg2527   2.166       .  S
C2515      O2528   1.267       .  A
C2516      O2543   1.280       .  A
Mg2517     O2524   2.147       .  S
Mg2517     O2525   2.123       .  S
Mg2517     O2518   2.310       .  S
Mg2517     O2519   2.334       .  S
O2519      C2523   1.279       .  A
O2520     Mg2527   2.362       .  S
O2521      C2540   1.266       .  A
O2522      C2542   1.282       .  A
O2522     Mg2538   2.370       .  S
O2524     Mg2538   2.163       .  S
O2524      C2535   1.233       .  S
O2525     Mg2544   2.163       .  S
O2526     Mg2538   2.320       .  S
Mg2527     O2543   2.335       .  S
H2529      C2534   1.081       .  S
O2530     Mg2538   2.184       .  S
O2530      C2533   1.239       .  S
H2531      C2533   1.081       .  S
H2532      C2535   1.081       .  S
O2537     Mg2544   2.287       .  S
C2540      O2545   1.266       .  A
C2540      C2705   1.430       .  S
O2541      C2542   1.269       .  A
C2542      C2674   1.485       .  S
O2547     Mg2549   2.161       .  S
O2547     Mg2555   2.134       .  S
O2547      C2582   1.234       .  S
C2548      O2561   1.233       .  S
C2548      O2585   1.267       .  A
C2548      H2587   1.081       .  S
Mg2549     O2578   2.161       .  S
Mg2549     O2560   2.310       .  S
O2550     Mg2592   2.170       .  S
O2550     Mg2575   2.171       .  S
O2550      C2571   1.236       .  S
O2551      C2582   1.270       .  A
O2551     Mg2575   2.314       .  S
C2552      O2554   1.272       .  A
C2552      O2566   1.271       .  A
C2552      C2610   1.480       .  S
O2553      C2581   1.275       .  A
O2553     Mg2555   2.332       .  S
O2554     Mg2586   2.297       .  S
Mg2555     O2561   2.155       .  S
Mg2555     O2557   2.284       .  S
C2556      O2594   1.272       .  A
C2556      O2562   1.269       .  A
C2556      C2703   1.444       .  S
O2557      C2564   1.270       .  A
H2558      C2571   1.081       .  S
C2559      O2573   1.234       .  S
C2559      O2574   1.271       .  A
C2559      H2584   1.081       .  S
O2560      C2583   1.269       .  A
O2561     Mg2575   2.176       .  S
O2562     Mg2592   2.286       .  S
C2563      O2576   1.269       .  A
C2563      O2568   1.269       .  A
C2563      C2654   1.466       .  S
C2564      O2591   1.270       .  A
C2564      C2632   1.479       .  S
Mg2565     O2572   2.173       .  S
Mg2565     O2573   2.131       .  S
Mg2565     O2566   2.282       .  S
Mg2565     O2567   2.315       .  S
Mg2565     O2594   2.292       .  S
O2567      C2571   1.273       .  A
O2568     Mg2575   2.295       .  S
O2569      C2588   1.267       .  A
O2570     Mg2586   2.308       .  S
O2572     Mg2586   2.170       .  S
O2572      C2583   1.233       .  S
O2573     Mg2592   2.149       .  S
O2574     Mg2586   2.313       .  S
Mg2575     O2591   2.276       .  S
O2576     Mg2592   2.231       .  S
H2577      C2582   1.081   1_455  S
O2578     Mg2586   2.189       .  S
O2578      C2581   1.237       .  S
H2579      C2581   1.081       .  S
H2580      C2583   1.081       .  S
O2585     Mg2592   2.293       .  S
C2588      O2593   1.268       .  A
C2588      C2701   1.445       .  S
O2589      C2590   1.266       .  A
C2595      C2596   1.381       .  A
C2595      C2600   1.416       .  A
C2596      H2615   1.088       .  S
C2596      C2597   1.384       .  A
C2597      C2598   1.407       .  A
C2598      C2599   1.414       .  A
C2598      C2605   1.405       .  A
C2599      C2600   1.423       .  A
C2599      C2604   1.417       .  A
C2600      C2601   1.402       .  A
C2601      H2611   1.083       .  S
C2601      C2602   1.396       .  A
C2602      H2612   1.083       .  S
C2602      C2603   1.409       .  A
C2603      C2604   1.419       .  A
C2603      C2610   1.409       .  A
C2604      C2607   1.427       .  A
C2605      H2613   1.083       .  S
C2605      C2606   1.395       .  A
C2606      C2607   1.405       .  A
C2607      C2608   1.415       .  A
C2608      C2609   1.406       .  A
C2609      H2616   1.085       .  S
C2609      C2610   1.407       .  A
C2617      C2618   1.394       .  A
C2617      C2622   1.403       .  A
C2618      H2637   1.086       .  S
C2618      C2619   1.394       .  A
C2619      C2620   1.427       .  A
C2620      C2621   1.424       .  A
C2620      C2627   1.409       .  A
C2621      C2622   1.419       .  A
C2622      C2623   1.403       .  A
C2623      H2633   1.083       .  S
C2624      H2634   1.082       .  S
C2624      C2625   1.403       .  A
C2625      C2626   1.423       .  A
C2625      C2632   1.405       .  A
C2626      C2629   1.425       .  A
C2627      H2635   1.083       .  S
C2628      H2636   1.083   1_455  S
C2628      C2629   1.408   1_455  A
C2629      C2630   1.424       .  A
C2630      C2631   1.405       .  A
C2631      H2638   1.086       .  S
C2631      C2632   1.400       .  A
C2639      C2640   1.407       .  A
C2639      C2644   1.412       .  A
C2640      H2659   1.086       .  S
C2640      C2641   1.406       .  A
C2641      C2642   1.412       .  A
C2642      C2643   1.427       .  A
C2642      C2649   1.405       .  A
C2643      C2644   1.422       .  A
C2643      C2648   1.418       .  A
C2644      C2645   1.408       .  A
C2645      H2655   1.083       .  S
C2645      C2646   1.398       .  A
C2646      H2656   1.083       .  S
C2646      C2647   1.404       .  A
C2647      C2648   1.424       .  A
C2647      C2654   1.418       .  A
C2648      C2651   1.417       .  A
C2649      H2657   1.083       .  S
C2649      C2650   1.393       .  A
C2650      H2658   1.083       .  S
C2650      C2651   1.404       .  A
C2651      C2652   1.406       .  A
C2652      C2653   1.384       .  A
C2653      H2660   1.089       .  S
C2653      C2654   1.383       .  A
C2661      C2662   1.380       .  A
C2661      C2666   1.401       .  A
C2662      H2681   1.088       .  S
C2662      C2663   1.388       .  A
C2663      C2664   1.428       .  A
C2664      C2665   1.422       .  A
C2664      C2671   1.407       .  A
C2665      C2666   1.417       .  A
C2666      C2667   1.402       .  A
C2667      H2677   1.083       .  S
C2668      H2678   1.083       .  S
C2668      C2669   1.403       .  A
C2669      C2670   1.421       .  A
C2669      C2676   1.403       .  A
C2670      C2673   1.423       .  A
C2671      H2679   1.083       .  S
C2672      H2680   1.082       .  S
C2672      C2673   1.412       .  A
C2673      C2674   1.429       .  A
C2674      C2675   1.402       .  A
C2675      H2682   1.086       .  S
C2675      C2676   1.397       .  A
C2684      C2685   1.416       .  A
C2685      C2717   1.460       .  S
C2685      C2686   1.407       .  A
C2686      C2713   1.454       .  S
C2687      C2722   1.443       .  S
C2688      C2719   1.456       .  S
C2689      C2725   1.457       .  S
C2689      C2690   1.406       .  A
C2689      C2694   1.417       .  A
C2690      C2736   1.460       .  S
C2690      C2691   1.411       .  A
C2691      C2732   1.443       .  S
C2691      C2692   1.416       .  A
C2692      C2727   1.453       .  S
C2692      C2693   1.407       .  A
C2693      C2734   1.462       .  S
C2693      C2694   1.413       .  A
C2694      C2730   1.441       .  S
C2695      C2712   1.446       .  S
C2695      C2696   1.414       .  A
C2695      C2700   1.413       .  A
C2696      C2702   1.460       .  S
C2696      C2697   1.407       .  A
C2697      C2708   1.450       .  S
C2697      C2698   1.412       .  A
C2698      C2709   1.446       .  S
C2698      C2699   1.414       .  A
C2699      C2704   1.460       .  S
C2699      C2700   1.408       .  A
C2700      C2706   1.450       .  S
C2701      C2702   1.213       .  T
C2703      C2704   1.212       .  T
C2705      C2706   1.204       .  T
C2707      C2708   1.203       .  T
C2709      C2710   1.205       .  T
C2711      C2712   1.204       .  T
C2713      C2714   1.206       .  T
C2715      C2716   1.208       .  T
C2717      C2718   1.212       .  T
C2719      C2720   1.210       .  T
C2721      C2722   1.202       .  T
C2723      C2724   1.202       .  T
C2725      C2726   1.211       .  T
C2727      C2728   1.208       .  T
C2729      C2730   1.202       .  T
C2731      C2732   1.202       .  T
C2733      C2734   1.211       .  T
C2735      C2736   1.209       .  T
