geometry optimzed in LAMMPS
_audit_creation_date              2020-11-30 
_audit_creation_method            'lammps2cif' 
_symmetry_space_group_name_H-M    'P1' 
_symmetry_Int_Tables_number       1 
_symmetry_cell_setting            triclinic 
loop_ 
_symmetry_equiv_pos_as_xyz 
  x,y,z 
_cell_length_a                    42.62966268 
_cell_length_b                    42.43474310827531 
_cell_length_c                    42.59486445942695 
_cell_angle_alpha                 90.02850460288074 
_cell_angle_beta                  90.03417946786391 
_cell_angle_gamma                 89.99630430195637 
loop_ 
_atom_site_label 
_atom_site_type_symbol 
_atom_site_fract_x 
_atom_site_fract_y 
_atom_site_fract_z 
_atom_site_charge 
N1          N  0.31134157  0.26283904  0.04235127    -0.05000
N2          N  0.32477488  0.27409085  0.06789223    -0.57200
N3          N  0.31205757  0.23418921  0.46934583    -0.04700
N4          N  0.32728471  0.22419358  0.44424474    -0.59300
N5          N  0.31003360  0.26512720  0.46923756    -0.04300
N6          N  0.32339504  0.27681168  0.44376969    -0.57100
N7          N  0.31263946  0.23190096  0.04209641    -0.04000
N8          N  0.32737482  0.22140201  0.06735570    -0.59600
C9          C  0.33486175  0.24806378  0.08309086     0.97100
C10         C  0.33415887  0.25099692  0.42857944     0.96900
N11         N  0.23124352  0.17817538  0.46925388    -0.05200
N12         N  0.22124714  0.16273426  0.44413912    -0.57700
N13         N  0.26127431  0.17954584  0.04211168    -0.03400
N14         N  0.27263457  0.16663746  0.06795378    -0.59000
N15         N  0.23039551  0.17800438  0.04193138    -0.05300
N16         N  0.22023362  0.16366408  0.06756719    -0.58000
N17         N  0.26206799  0.18024383  0.46897325    -0.03000
N18         N  0.27360048  0.16672026  0.44359779    -0.59100
Mn19       Mn  0.28827524  0.20575353  0.50555119     1.18400
C20         C  0.24799761  0.15573228  0.42845488     0.99200
C21         C  0.24685600  0.15667523  0.08344506     0.99900
N22         N  0.25643293  0.31495041  0.47055588    -0.05300
N23         N  0.26650396  0.32895685  0.44478349    -0.61600
N24         N  0.22714666  0.31217521  0.04326874    -0.04100
N25         N  0.21619388  0.32576647  0.06897349    -0.62300
N26         N  0.25802403  0.31269359  0.04323968    -0.04800
N27         N  0.26869109  0.32642361  0.06896120    -0.61900
N28         N  0.22560978  0.31363983  0.47070880    -0.03700
N29         N  0.21404986  0.32671746  0.44505095    -0.62500
Mn30       Mn  0.28551705  0.28912183  0.00624222     1.10700
C31         C  0.23982319  0.33647717  0.42937696     1.00400
C32         C  0.24238116  0.33460846  0.08461462     1.00500
N33         N  0.17592604  0.22832254  0.04151758    -0.04800
N34         N  0.16036499  0.21730115  0.06607722    -0.60200
N35         N  0.17579723  0.25963906  0.47114252    -0.04100
N36         N  0.16027156  0.27037947  0.44654923    -0.56900
N37         N  0.17664627  0.22862576  0.47077493    -0.05400
N38         N  0.16150907  0.21767772  0.44593901    -0.59700
N39         N  0.17569376  0.25933210  0.04166795    -0.04400
N40         N  0.16015573  0.27001746  0.06623836    -0.56900
Mn41       Mn  0.20360291  0.20204957  0.50644872     1.20200
Mn42       Mn  0.20081962  0.28711366  0.00607363     1.10100
Cl43       Cl  0.24408288  0.24579335  0.00568437    -0.84900
C44         C  0.15031455  0.24364884  0.08096913     0.97400
C45         C  0.15110477  0.24399568  0.43133283     0.97200
N46         N  0.10493309  0.23896060  0.11851840    -0.02400
C47         C  0.13560872  0.24430869  0.11223166     0.00200
C48         C  0.15031920  0.25629764  0.13862051    -0.22700
C49         C  0.12777224  0.25840136  0.16181575    -0.22900
C50         C  0.10016420  0.24770966  0.14863715     0.00100
H51         H  0.17446116  0.26399516  0.14039333     0.13900
H52         H  0.13099986  0.26747198  0.18533979     0.13900
N53         N  0.37757496  0.23697704  0.12214836    -0.02400
C54         C  0.34924894  0.24915114  0.11446019     0.00200
C55         C  0.33799699  0.26778285  0.13852627    -0.22700
C56         C  0.36030400  0.26710108  0.16188960    -0.22900
C57         C  0.38440324  0.24814597  0.15120986     0.00100
H58         H  0.31670286  0.28168008  0.13841556     0.13900
H59         H  0.35978637  0.28037321  0.18357691     0.13900
N60         N  0.10614955  0.23864466  0.39341368    -0.02400
C61         C  0.10179933  0.24563652  0.36276438     0.00200
C62         C  0.12963183  0.25573914  0.34957622    -0.22700
C63         C  0.15182009  0.25502724  0.37325760    -0.22900
C64         C  0.13668248  0.24441593  0.39993290     0.00100
H65         H  0.13322142  0.26360269  0.32568475     0.13900
H66         H  0.17603334  0.26248642  0.37147629     0.13900
N67         N  0.38044605  0.24200492  0.39373297    -0.02400
C68         C  0.38746747  0.24797493  0.36329939     0.00200
C69         C  0.36183366  0.26138740  0.34849277    -0.22700
C70         C  0.33835523  0.26375883  0.37072050    -0.22900
C71         C  0.35060887  0.25173071  0.39822086     0.00100
H72         H  0.36080984  0.26989277  0.32456076     0.13900
H73         H  0.31530914  0.27393290  0.36740428     0.13900
N74         N  0.44737980  0.20812894  0.01224516    -0.35500
N75         N  0.49879886  0.19770036  0.45662319    -0.56100
N76         N  0.04113584  0.19486458  0.00096530    -0.35500
N77         N  0.50024564  0.20406322  0.05547605    -0.56100
C78         C  0.43111826  0.19973029  0.47316784     0.28100
C79         C  0.43472132  0.22048387  0.03867623     0.28100
C80         C  0.06198831  0.19508283  0.48641436     0.28000
C81         C  0.06226615  0.19600793  0.02466508     0.28000
C82         C  0.47550223  0.19984185  0.43519097     0.36700
C83         C  0.02530662  0.19559293  0.44053534     0.36700
C84         C  0.47657809  0.20532154  0.07644255     0.36700
C85         C  0.02464663  0.19683709  0.06982611     0.36700
C86         C  0.40022832  0.19245202  0.48041681    -0.20800
C87         C  0.40820865  0.23785486  0.03095295    -0.20800
C88         C  0.09103501  0.18840870  0.49954517    -0.20800
C89         C  0.09229604  0.19653950  0.01223700    -0.20800
C90         C  0.48791052  0.20049111  0.40518469    -0.21900
C91         C  0.01909677  0.19482980  0.40859261    -0.21900
C92         C  0.48746126  0.19810561  0.10624773    -0.21900
C93         C  0.01782568  0.19284311  0.10140986    -0.21900
C94         C  0.44321951  0.20148434  0.44229674    -0.17200
C95         C  0.44616785  0.21624129  0.06961646    -0.17200
C96         C  0.05535719  0.19755351  0.05714824    -0.17200
C97         C  0.05579825  0.19720107  0.45388082    -0.17200
H98         H  0.38185675  0.18552665  0.46427997     0.15700
H99         H  0.39324001  0.25126797  0.04647185     0.15700
H100        H  0.11253140  0.18252948  0.48739276     0.15700
H101        H  0.11433543  0.19705524  0.02476315     0.15700
H102        H  0.47550922  0.20152980  0.38312436     0.14000
H103        H  0.03583467  0.19361425  0.38963207     0.14000
H104        H  0.47427687  0.19786281  0.12794302     0.14000
H105        H  0.03409537  0.18752965  0.12016516     0.14000
H106        H  0.46655707  0.19308748  0.01084308     0.27200
H107        H  0.01710425  0.19399554  0.00341560     0.27200
N108        N  0.02909064  0.26188995  0.18874847    -0.05000
N109        N  0.05441970  0.27330084  0.17492925    -0.57200
N110        N  0.45560904  0.22924699  0.18960198    -0.04700
N111        N  0.43004748  0.21902327  0.17508299    -0.59300
N112        N  0.45598197  0.26019543  0.19029459    -0.04300
N113        N  0.43070095  0.27175708  0.17677449    -0.57100
N114        N  0.02899717  0.23092969  0.18742903    -0.04000
N115        N  0.05405755  0.22060261  0.17236124    -0.59600
C116        C  0.06956731  0.24727196  0.16464096     0.97100
C117        C  0.41486518  0.24597094  0.16726348     0.96900
N118        N  0.45741094  0.17746396  0.27321991    -0.05200
N119        N  0.43183055  0.16350414  0.28417185    -0.57700
N120        N  0.03026207  0.17863446  0.23880533    -0.03400
N121        N  0.05620624  0.16579532  0.22759610    -0.59000
N122        N  0.03023114  0.17757024  0.26969515    -0.05300
N123        N  0.05588568  0.16363623  0.28010841    -0.58000
N124        N  0.45686551  0.17808960  0.24230698    -0.03000
N125        N  0.43092454  0.16502146  0.23165712    -0.59100
Mn126      Mn  0.49272390  0.20262898  0.21431384     1.18400
C127        C  0.41564378  0.15589289  0.25784211     0.99200
C128        C  0.07179591  0.15652168  0.25365157     0.99900
N129        N  0.45672086  0.31147329  0.24138912    -0.05300
N130        N  0.43061377  0.32402418  0.23042291    -0.61600
N131        N  0.02898499  0.31289966  0.27207212    -0.04100
N132        N  0.05482477  0.32704132  0.28212518    -0.62300
N133        N  0.02835295  0.31242927  0.24121625    -0.04800
N134        N  0.05366421  0.32578477  0.22959672    -0.61900
N135        N  0.45731248  0.31257286  0.27225041    -0.03700
N136        N  0.43156471  0.32631570  0.28292418    -0.62500
Mn137      Mn  0.49279654  0.28678768  0.21441089     1.10700
C138        C  0.41525254  0.33322765  0.25649910     1.00400
C139        C  0.06983882  0.33489690  0.25520787     1.00500
N140        N  0.03090293  0.22887747  0.32278158    -0.04800
N141        N  0.05635831  0.21835062  0.33716753    -0.60200
N142        N  0.45934647  0.26114690  0.32486061    -0.04100
N143        N  0.43443323  0.27250566  0.33933319    -0.56900
N144        N  0.45895214  0.23012200  0.32519681    -0.05400
N145        N  0.43366022  0.21982260  0.34001255    -0.59700
N146        N  0.03044400  0.25991873  0.32306970    -0.04400
N147        N  0.05555249  0.27108553  0.33748061    -0.56900
Mn148      Mn  0.49481702  0.20270832  0.29929394     1.20200
Mn149      Mn  0.49498171  0.28801430  0.29867756     1.10100
Cl150      Cl  0.49380042  0.24499745  0.25675542    -0.84900
C151        C  0.07133115  0.24494803  0.34633768     0.97400
C152        C  0.41893916  0.24657581  0.34913370     0.97200
N153        N  0.23640538  0.38124902  0.12002622    -0.02400
C154        C  0.24122220  0.38706935  0.15085421     0.00200
C155        C  0.25009762  0.35965170  0.16598907    -0.22700
C156        C  0.25081684  0.33622764  0.14340421    -0.22900
C157        C  0.24244186  0.35035638  0.11541425     0.00100
H158        H  0.25643025  0.35717979  0.19047411     0.13900
H159        H  0.25758230  0.31189479  0.14686492     0.13900
N160        N  0.24091638  0.11023462  0.11915492    -0.02400
C161        C  0.24779433  0.14090537  0.11428219     0.00200
C162        C  0.25754590  0.15477666  0.14197428    -0.22700
C163        C  0.25666471  0.13145146  0.16465268    -0.22900
C164        C  0.24633184  0.10430298  0.14991670     0.00100
H165        H  0.26511206  0.17890586  0.14520452     0.13900
H166        H  0.26365991  0.13382507  0.18896734     0.13900
N167        N  0.23716346  0.11103154  0.39107354    -0.02400
C168        C  0.24974462  0.13956953  0.39782777     0.00200
C169        C  0.26946532  0.14907260  0.37392021    -0.22700
C170        C  0.26897382  0.12553244  0.35166909    -0.22900
C171        C  0.24908019  0.10238043  0.36278943     0.00100
H172        H  0.28388738  0.17005943  0.37345302     0.13900
H173        H  0.28289748  0.12464630  0.33044044     0.13900
N174        N  0.23467839  0.38086604  0.39105927    -0.02400
C175        C  0.24053533  0.38447760  0.36019452     0.00200
C176        C  0.24868882  0.35596859  0.34684123    -0.22700
C177        C  0.24792397  0.33400523  0.37081563    -0.22900
C178        C  0.23928314  0.35008613  0.39771024     0.00100
H179        H  0.25541464  0.35178743  0.32270136     0.13900
H180        H  0.25422082  0.30935870  0.36906937     0.13900
N181        N  0.20885553  0.04358012  0.01280434    -0.35500
N182        N  0.20386802  0.48861297  0.46052354    -0.56100
N183        N  0.19885976  0.44684597  0.01172768    -0.35500
N184        N  0.20028063  0.50028070  0.05477383    -0.56100
C185        C  0.21666419  0.05734365  0.47634663     0.28100
C186        C  0.20121913  0.05945745  0.03919785     0.28100
C187        C  0.20810245  0.42559803  0.48862416     0.28000
C188        C  0.19734461  0.43103603  0.03916293     0.28000
C189        C  0.20416978  0.01372305  0.43977174     0.36700
C190        C  0.19729342  0.46190878  0.44456499     0.36700
C191        C  0.19778264  0.01474480  0.07676244     0.36700
C192        C  0.19596089  0.47705601  0.07604070     0.36700
C193        C  0.23273930  0.08476050  0.48398451    -0.20800
C194        C  0.19545374  0.09079150  0.03194689    -0.20800
C195        C  0.22405132  0.39952249  0.49990157    -0.20800
C196        C  0.19457034  0.39903860  0.03297593    -0.20800
C197        C  0.19579455  0.00213697  0.41053139    -0.21900
C198        C  0.19083082  0.46875760  0.41338671    -0.21900
C199        C  0.19639344  0.00208760  0.10667387    -0.21900
C200        C  0.19046910  0.48998022  0.10542204    -0.21900
C201        C  0.21379595  0.04480569  0.44571203    -0.17200
C202        C  0.20160811  0.04705682  0.06999636    -0.17200
C203        C  0.19867800  0.44443219  0.06970703    -0.17200
C204        C  0.20191427  0.43130987  0.45666716    -0.17200
H205        H  0.24615235  0.09985513  0.46860525     0.15700
H206        H  0.18895806  0.10944627  0.04799591     0.15700
H207        H  0.23381556  0.38023770  0.48648692     0.15700
H208        H  0.19165322  0.38020244  0.04976795     0.15700
H209        H  0.19304535  0.01531303  0.38895614     0.14000
H210        H  0.18546332  0.45233409  0.39470537     0.14000
H211        H  0.19711961  0.01438011  0.12889366     0.14000
H212        H  0.18644334  0.47769962  0.12729014     0.14000
H213        H  0.21676548  0.02058926  0.01147227     0.27200
H214        H  0.20123586  0.47084870  0.00927201     0.27200
N215        N  0.10825724  0.37896494  0.26505534    -0.02400
C216        C  0.10052858  0.35044903  0.25288918     0.00200
C217        C  0.12385903  0.33998288  0.23294973    -0.22700
C218        C  0.14668331  0.36290601  0.23270239    -0.22900
C219        C  0.13650170  0.38652584  0.25256828     0.00100
H220        H  0.12349717  0.31880341  0.21878788     0.13900
H221        H  0.16757944  0.36311315  0.21827646     0.13900
N222        N  0.37697302  0.11194532  0.26842604    -0.02400
C223        C  0.34833568  0.10471595  0.25653525     0.00200
C224        C  0.33761820  0.12894453  0.23772590    -0.22700
C225        C  0.36055753  0.15177689  0.23785550    -0.22900
C226        C  0.38457116  0.14069905  0.25665068     0.00100
H227        H  0.31632968  0.12915248  0.22387003     0.13900
H228        H  0.36055133  0.17327873  0.22419054     0.13900
N229        N  0.10671379  0.11010457  0.26148336    -0.02400
C230        C  0.10238127  0.14056264  0.25351454     0.00200
C231        C  0.13039524  0.15408067  0.24449472    -0.22700
C232        C  0.15282517  0.13066908  0.24686657    -0.22900
C233        C  0.13760164  0.10384122  0.25731420     0.00100
H234        H  0.13400331  0.17797661  0.23640022     0.13900
H235        H  0.17729023  0.13264162  0.24038683     0.13900
N236        N  0.37978284  0.37938959  0.26344949    -0.02400
C237        C  0.34943969  0.38597975  0.25655108     0.00200
C238        C  0.33497062  0.35943081  0.24443945    -0.22700
C239        C  0.35731574  0.33583866  0.24393217    -0.22900
C240        C  0.38450797  0.34891909  0.25580038     0.00100
H241        H  0.31119889  0.35777898  0.23564463     0.13900
H242        H  0.35435498  0.31220474  0.23486355     0.13900
N243        N  0.44278551  0.49898264  0.30093418    -0.35500
N244        N  0.48660147  0.44651923  0.29777134    -0.56100
N245        N  0.04029904  0.48945436  0.29603014    -0.35500
N246        N  0.49922549  0.04234334  0.29529914    -0.56100
C247        C  0.42321731  0.47449870  0.29538884     0.28100
C248        C  0.43211208  0.02754667  0.28675559     0.28100
C249        C  0.05283030  0.46283677  0.28390689     0.28000
C250        C  0.06180425  0.01381744  0.29050889     0.28000
C251        C  0.46026766  0.43049878  0.30536179     0.36700
C252        C  0.00952760  0.42646226  0.29740007     0.36700
C253        C  0.47602086  0.06369538  0.29876617     0.36700
C254        C  0.02629716  0.05822171  0.30246401     0.36700
C255        C  0.39619522  0.48523650  0.28081737    -0.20800
C256        C  0.40465898  0.02015253  0.27077391    -0.20800
C257        C  0.07988042  0.47021615  0.26727917    -0.20800
C258        C  0.08709270  0.00257696  0.27346633    -0.20800
C259        C  0.46742854  0.39916591  0.31127019    -0.21900
C260        C  0.99767833  0.39734566  0.30609223    -0.21900
C261        C  0.48829847  0.09275206  0.30709943    -0.21900
C262        C  0.01978916  0.08949342  0.30935132    -0.21900
C263        C  0.42949472  0.44249737  0.30173475    -0.17200
C264        C  0.44464887  0.05821999  0.29010470    -0.17200
C265        C  0.05661057  0.04583240  0.29734358    -0.17200
C266        C  0.04063010  0.43212477  0.28792621    -0.17200
H267        H  0.37649647  0.47146506  0.27266339     0.15700
H268        H  0.38956569  0.03575879  0.25762374     0.15700
H269        H  0.09478470  0.45454058  0.25399103     0.15700
H270        H  0.10599933  0.01606090  0.26314736     0.14500
H271        H  0.45126201  0.38035959  0.31693560     0.14000
H272        H  0.01057158  0.37558360  0.30913190     0.14000
H273        H  0.47563489  0.11460215  0.31047430     0.14000
H274        H  0.03639240  0.10798625  0.31482969     0.14000
H275        H  0.46429920  0.49788484  0.31243196     0.27200
H276        H  0.02059412  0.49112213  0.31038391     0.27200
N277        N  0.25738948  0.45856094  0.18970246    -0.05000
N278        N  0.26786350  0.43297472  0.17549019    -0.57200
N279        N  0.22912696  0.03306151  0.18931156    -0.04700
N280        N  0.21881438  0.05834225  0.17434277    -0.59300
N281        N  0.25997676  0.03249398  0.18936854    -0.04300
N282        N  0.27128366  0.05740846  0.17462143    -0.57100
N283        N  0.22654994  0.45940237  0.18890551    -0.04000
N284        N  0.21541134  0.43446002  0.17401193    -0.59600
C285        C  0.24145934  0.41844114  0.16551098     0.97100
C286        C  0.24538690  0.07305652  0.16500949     0.96900
N287        N  0.17658991  0.03192412  0.27288633    -0.05200
N288        N  0.16143967  0.05681747  0.28392391    -0.57700
N289        N  0.17475812  0.45909471  0.24042101    -0.03400
N290        N  0.16138485  0.43361993  0.22876232    -0.59000
N291        N  0.17378672  0.45862207  0.27130519    -0.05300
N292        N  0.15930310  0.43290108  0.28125652    -0.58000
N293        N  0.17702009  0.03249920  0.24195802    -0.03000
N294        N  0.16222867  0.05769667  0.23141484    -0.59100
Mn295      Mn  0.20199353  0.99631430  0.21415490     1.18400
C296        C  0.15225437  0.07238160  0.25772681     0.99200
C297        C  0.15162623  0.41768167  0.25439523     0.99900
N298        N  0.31113795  0.03191913  0.24158832    -0.05300
N299        N  0.32423063  0.05799098  0.23096749    -0.61600
N300        N  0.30991281  0.45727735  0.27270554    -0.04100
N301        N  0.32534976  0.43244719  0.28339266    -0.62300
N302        N  0.30952918  0.45726802  0.24184311    -0.04800
N303        N  0.32454976  0.43235884  0.23086785    -0.61900
N304        N  0.31181998  0.03138790  0.27246586    -0.03700
N305        N  0.32583163  0.05698905  0.28346647    -0.62500
Mn306      Mn  0.28637864  0.99540658  0.21426166     1.10700
C307        C  0.33352281  0.07325558  0.25723319     1.00400
C308        C  0.33471623  0.41739361  0.25700873     1.00500
N309        N  0.22569406  0.45727159  0.32331786    -0.04800
N310        N  0.21459252  0.43148017  0.33666074    -0.60200
N311        N  0.26005115  0.02999098  0.32406085    -0.04100
N312        N  0.27183671  0.05518789  0.33772207    -0.56900
N313        N  0.22919004  0.03051580  0.32512808    -0.05400
N314        N  0.21941713  0.05616327  0.34003096    -0.59700
N315        N  0.25659025  0.45667080  0.32288633    -0.04400
N316        N  0.26709721  0.43033630  0.33560080    -0.56900
Mn317      Mn  0.20165331  0.99444620  0.29918083     1.20200
Mn318      Mn  0.28425440  0.49363038  0.29941488     1.10100
Cl319      Cl  0.24411656  0.99504277  0.25651806    -0.84900
C320        C  0.24068748  0.41497897  0.34402528     0.97400
C321        C  0.24643898  0.07116097  0.34778867     0.97200
C322        C  0.40456770  0.40073691  0.27154679    -0.15400
C323        C  0.40339732  0.41986858  0.29649260    -0.30500
H324        H  0.42583874  0.40000397  0.25747847     0.13700
H325        H  0.38236847  0.42125354  0.31076870     0.14200
C326        C  0.08162059  0.08874632  0.26862202    -0.15400
C327        C  0.08309935  0.06788070  0.29212141    -0.30500
H328        H  0.05993945  0.09094872  0.25533374     0.13700
H329        H  0.10437368  0.06521009  0.30581158     0.14200
C330        C  0.39637783  0.09058671  0.28609088    -0.15400
C331        C  0.42644833  0.08553979  0.27831061    -0.30500
H332        H  0.38522535  0.07500662  0.30295780     0.13700
H333        H  0.43771350  0.09995078  0.26062837     0.14200
C334        C  0.08902400  0.39991608  0.28341312    -0.15400
C335        C  0.05880512  0.40485890  0.27601898    -0.30500
H336        H  0.10033285  0.41551135  0.30018566     0.13700
H337        H  0.04739223  0.39053158  0.25834008     0.14200
C338        C  0.22881897  0.40623827  0.41250852    -0.15400
C339        C  0.20638116  0.40479102  0.43445917    -0.30500
H340        H  0.24226067  0.42782546  0.40971719     0.13700
H341        H  0.19260264  0.38355572  0.43752148     0.14200
C342        C  0.21890729  0.09243536  0.41254297    -0.15400
C343        C  0.22682738  0.06256303  0.41881570    -0.30500
H344        H  0.20155216  0.10408572  0.42716281     0.13700
H345        H  0.24499824  0.05097693  0.40526081     0.14200
C346        C  0.20843497  0.06899799  0.09638189    -0.15400
C347        C  0.23337853  0.08819872  0.09478516    -0.30500
H348        H  0.19397984  0.06861998  0.11731805     0.13700
H349        H  0.24746373  0.08873096  0.07351857     0.14200
C350        C  0.23003248  0.40360719  0.09563738    -0.15400
C351        C  0.20514136  0.42299295  0.09657855    -0.30500
H352        H  0.24466141  0.40292450  0.07475014     0.13700
H353        H  0.19012319  0.42345023  0.11711266     0.14200
C354        C  0.40121387  0.23262555  0.41855668    -0.15400
C355        C  0.42092807  0.20810316  0.41622334    -0.30500
H356        H  0.40014742  0.24581808  0.44041958     0.13700
H357        H  0.42203045  0.19444580  0.39474544     0.14200
C358        C  0.08164154  0.23073349  0.41501229    -0.15400
C359        C  0.08266722  0.20472699  0.43291921    -0.30500
H360        H  0.06062139  0.24524630  0.41493800     0.13700
H361        H  0.10346647  0.18999320  0.43299355     0.14200
C362        C  0.39748814  0.21971657  0.10099676    -0.15400
C363        C  0.42735245  0.22835213  0.09626996    -0.30500
H364        H  0.38687662  0.20260225  0.08526309     0.13700
H365        H  0.43804179  0.24634839  0.11083376     0.14200
C366        C  0.08175346  0.20463234  0.07894855    -0.15400
C367        C  0.08042679  0.23047734  0.09705617    -0.30500
H368        H  0.10265262  0.19003345  0.07885436     0.13700
H369        H  0.05925721  0.24477275  0.09705542     0.14200
N370        N  0.31065630  0.26397511  0.54255360    -0.05000
N371        N  0.32372970  0.27517091  0.56830886    -0.57200
N372        N  0.31280928  0.23255365  0.96926984    -0.04700
N373        N  0.32857646  0.22231375  0.94455783    -0.59300
N374        N  0.31177027  0.26352827  0.96941098    -0.04300
N375        N  0.32669997  0.27499731  0.94472595    -0.57100
N376        N  0.31256928  0.23303923  0.54203779    -0.04000
N377        N  0.32740576  0.22254465  0.56722822    -0.59600
C378        C  0.33425377  0.24916162  0.58325963     0.97100
C379        C  0.33752913  0.24904723  0.92975313     0.96900
N380        N  0.23067786  0.17802296  0.96856913    -0.05200
N381        N  0.22085861  0.16308291  0.94307069    -0.57700
N382        N  0.26286300  0.17887696  0.54191903    -0.03400
N383        N  0.27466364  0.16447148  0.56675206    -0.59000
N384        N  0.23202976  0.17729748  0.54222753    -0.05300
N385        N  0.22228903  0.16160440  0.56721620    -0.58000
N386        N  0.26152125  0.17981564  0.96871861    -0.03000
N387        N  0.27323000  0.16665046  0.94323916    -0.59100
Mn388      Mn  0.28781115  0.20498040  0.00551322     1.18400
C389        C  0.24774171  0.15619082  0.92757965     0.99200
C390        C  0.24915988  0.15333539  0.58199945     0.99900
N391        N  0.25803128  0.31376024  0.97023749    -0.05300
N392        N  0.26856145  0.32798272  0.94481384    -0.61600
N393        N  0.22636988  0.31328246  0.54387817    -0.04100
N394        N  0.21531394  0.32612286  0.56994120    -0.62300
N395        N  0.25720775  0.31376942  0.54386437    -0.04800
N396        N  0.26780920  0.32657858  0.57004814    -0.61900
N397        N  0.22718214  0.31320396  0.97025701    -0.03700
N398        N  0.21605089  0.32711271  0.94486716    -0.62500
Mn399      Mn  0.28444894  0.29043070  0.50653757     1.10700
C400        C  0.24213415  0.33643883  0.92951810     1.00400
C401        C  0.24147258  0.33429956  0.58594645     1.00500
N402        N  0.17839899  0.22818641  0.54368549    -0.04800
N403        N  0.16510742  0.21699587  0.56938860    -0.60200
N404        N  0.17659059  0.26015915  0.96889660    -0.04100
N405        N  0.16198148  0.27123995  0.94385278    -0.56900
N406        N  0.17690674  0.22912127  0.96849860    -0.05400
N407        N  0.16228604  0.21849319  0.94321281    -0.59700
N408        N  0.17754544  0.25920814  0.54378055    -0.04400
N409        N  0.16390467  0.26977152  0.56949743    -0.56900
Mn410      Mn  0.20255450  0.20221489  0.00510982     1.20200
Mn411      Mn  0.20042009  0.28730288  0.50730458     1.10100
Cl412      Cl  0.24417086  0.24634283  0.50638889    -0.84900
C413        C  0.15631767  0.24324083  0.58511630     0.97400
C414        C  0.15294592  0.24502674  0.92826229     0.97200
N415        N  0.10918727  0.23954930  0.61910867    -0.02400
C416        C  0.14034138  0.24318257  0.61550576     0.00200
C417        C  0.15462407  0.24820373  0.64416798    -0.22700
C418        C  0.13096167  0.24767520  0.66633305    -0.22900
C419        C  0.10332842  0.24223544  0.65019426     0.00100
H420        H  0.17930435  0.25237874  0.64842135     0.13900
H421        H  0.13353669  0.25158539  0.69131285     0.13900
N422        N  0.37747891  0.23737504  0.62197288    -0.02400
C423        C  0.34938375  0.25024865  0.61421187     0.00200
C424        C  0.33818384  0.26844011  0.63863107    -0.22700
C425        C  0.36032489  0.26713958  0.66209462    -0.22900
C426        C  0.38416537  0.24801867  0.65118454     0.00100
H427        H  0.31694780  0.28231652  0.63876140     0.13900
H428        H  0.35990642  0.28013891  0.68395901     0.13900
N429        N  0.10650749  0.23774212  0.89278856    -0.02400
C430        C  0.10042012  0.24353466  0.86215723     0.00200
C431        C  0.12702184  0.25500341  0.84750131    -0.22700
C432        C  0.15027936  0.25618524  0.87006420    -0.22900
C433        C  0.13691082  0.24548753  0.89760486     0.00100
H434        H  0.12890976  0.26300807  0.82344908     0.13900
H435        H  0.17393244  0.26491274  0.86697328     0.13900
N436        N  0.38292224  0.24491400  0.89183799    -0.02400
C437        C  0.38650878  0.24995369  0.86078284     0.00200
C438        C  0.35820596  0.25812574  0.84727710    -0.22700
C439        C  0.33633122  0.25804091  0.87124407    -0.22900
C440        C  0.35216692  0.24974618  0.89838230     0.00100
H441        H  0.35401606  0.26398579  0.82290665     0.13900
H442        H  0.31172424  0.26398657  0.86920034     0.13900
N443        N  0.44663103  0.20773181  0.49965479    -0.35500
N444        N  0.49111625  0.20344130  0.95964838    -0.56100
N445        N  0.04142412  0.20204580  0.50950135    -0.35500
N446        N  0.48830620  0.20419867  0.55385139    -0.56100
C447        C  0.42926067  0.21767385  0.98797414     0.28100
C448        C  0.42590198  0.20589903  0.52357249     0.28100
C449        C  0.05725421  0.19614175  0.97363137     0.28000
C450        C  0.05682517  0.19986234  0.53715458     0.28000
C451        C  0.46387456  0.20257497  0.94345540     0.36700
C452        C  0.01169660  0.19594660  0.93646270     0.36700
C453        C  0.46243767  0.21652981  0.56757721     0.36700
C454        C  0.01278992  0.21603886  0.57202222     0.36700
C455        C  0.40454119  0.23572361  0.99906261    -0.20800
C456        C  0.39688136  0.19655662  0.51225585    -0.20800
C457        C  0.08914151  0.19611952  0.98021240    -0.20800
C458        C  0.08766503  0.19102249  0.53160548    -0.20800
C459        C  0.46974401  0.19627219  0.91206072    -0.21900
C460        C  0.99871687  0.19129874  0.90697343    -0.21900
C461        C  0.47032838  0.23060401  0.59587636    -0.21900
C462        C  0.00205261  0.23375587  0.59712409    -0.21900
C463        C  0.43422986  0.21067078  0.95601529    -0.17200
C464        C  0.43184716  0.21522317  0.55474749    -0.17200
C465        C  0.04450010  0.20849183  0.56681579    -0.17200
C466        C  0.04422459  0.19775346  0.94288644    -0.17200
H467        H  0.38624322  0.24701441  0.98549628     0.15700
H468        H  0.37545977  0.19345148  0.52552095     0.15700
H469        H  0.10834173  0.19564157  0.96371883     0.15700
H470        H  0.10610535  0.18776227  0.54876574     0.15700
H471        H  0.45289151  0.19455126  0.89315617     0.14000
H472        H  0.01087043  0.18704000  0.88509604     0.14000
H473        H  0.45532666  0.24352142  0.61173966     0.14000
H474        H  0.01578172  0.24442063  0.61568705     0.14000
H475        H  0.46916923  0.21674567  0.50103156     0.27200
H476        H  0.01883536  0.21024876  0.50637610     0.27200
N477        N  0.03255088  0.25954689  0.68879782    -0.05000
N478        N  0.05800498  0.26967104  0.67435429    -0.57200
N479        N  0.45627354  0.22891032  0.68753221    -0.04700
N480        N  0.43019276  0.21893132  0.67387090    -0.59300
N481        N  0.45699802  0.25989883  0.68812812    -0.04300
N482        N  0.43139134  0.27165278  0.67533268    -0.57100
N483        N  0.03136130  0.22857960  0.68840365    -0.04000
N484        N  0.05605909  0.21695687  0.67366057    -0.59600
C485        C  0.07215431  0.24289590  0.66471647     0.97100
C486        C  0.41504492  0.24594216  0.66639704     0.96900
N487        N  0.45562529  0.17803861  0.77079235    -0.05200
N488        N  0.42989913  0.16463823  0.78181462    -0.57700
N489        N  0.02870232  0.17661447  0.74046536    -0.03400
N490        N  0.05407499  0.16220820  0.72998508    -0.59000
N491        N  0.02830942  0.17654331  0.77137882    -0.05300
N492        N  0.05342328  0.16201210  0.78247591    -0.58000
N493        N  0.45548051  0.17765312  0.73988883    -0.03000
N494        N  0.42967490  0.16402507  0.72928194    -0.59100
Mn495      Mn  0.49248578  0.20127214  0.71251410     1.18400
C496        C  0.41411675  0.15589568  0.75569027     0.99200
C497        C  0.06893129  0.15272341  0.75637572     0.99900
N498        N  0.45886227  0.31260403  0.73872309    -0.05300
N499        N  0.43322274  0.32651558  0.72805099    -0.61600
N500        N  0.03305872  0.31196277  0.77189344    -0.04100
N501        N  0.05850894  0.32596339  0.78306719    -0.62300
N502        N  0.03391645  0.31115136  0.74102831    -0.04800
N503        N  0.06000711  0.32414580  0.73056838    -0.61900
N504        N  0.45923760  0.31299925  0.76958216    -0.03700
N505        N  0.43384607  0.32709507  0.78052442    -0.62500
Mn506      Mn  0.49450006  0.28603662  0.71200039     1.10700
C507        C  0.41811364  0.33586116  0.75437945     1.00400
C508        C  0.07501639  0.33342827  0.75693431     1.00500
N509        N  0.02856851  0.22865932  0.82376692    -0.04800
N510        N  0.05333981  0.21734400  0.83871432    -0.60200
N511        N  0.45819999  0.26176244  0.82140917    -0.04100
N512        N  0.43302078  0.27382883  0.83486585    -0.56900
N513        N  0.45724438  0.23076686  0.82217540    -0.05400
N514        N  0.43144086  0.22111661  0.83645543    -0.59700
N515        N  0.02943489  0.25965845  0.82338196    -0.04400
N516        N  0.05479691  0.27004670  0.83778967    -0.56900
Mn517      Mn  0.49303632  0.20234398  0.79751706     1.20200
Mn518      Mn  0.49541103  0.28731829  0.79627942     1.10100
Cl519      Cl  0.49398472  0.24421147  0.75459630    -0.84900
C520        C  0.06918541  0.24350060  0.84761127     0.97400
C521        C  0.41667265  0.24826416  0.84416410     0.97200
N522        N  0.23027863  0.37746092  0.62448406    -0.02400
C523        C  0.24179141  0.38494668  0.65323408     0.00200
C524        C  0.26000711  0.36055339  0.66459561    -0.22700
C525        C  0.26008493  0.33752828  0.64182371    -0.22900
C526        C  0.24189638  0.34865205  0.61741902     0.00100
H527        H  0.27334745  0.36034336  0.68622903     0.13900
H528        H  0.27339549  0.31588117  0.64225359     0.13900
N529        N  0.24411988  0.10871703  0.62085553    -0.02400
C530        C  0.25055397  0.13911557  0.61353730     0.00200
C531        C  0.26245067  0.15448883  0.63962063    -0.22700
C532        C  0.26327233  0.13266993  0.66370314    -0.22900
C533        C  0.25186476  0.10486759  0.65131768     0.00100
H534        H  0.27055503  0.17863478  0.64075341     0.13900
H535        H  0.27187901  0.13648646  0.68731055     0.13900
N536        N  0.23709286  0.11148450  0.88992537    -0.02400
C537        C  0.24980901  0.13991451  0.89704852     0.00200
C538        C  0.26909524  0.14978892  0.87292143    -0.22700
C539        C  0.26831051  0.12650220  0.85034425    -0.22900
C540        C  0.24848752  0.10326828  0.86141665     0.00100
H541        H  0.28337626  0.17087232  0.87246079     0.13900
H542        H  0.28204760  0.12580260  0.82898954     0.13900
N543        N  0.23734230  0.38159049  0.89243578    -0.02400
C544        C  0.24399253  0.38605322  0.86187252     0.00200
C545        C  0.25274680  0.35801052  0.84795190    -0.22700
C546        C  0.25158003  0.33541847  0.87127351    -0.22900
C547        C  0.24210427  0.35073008  0.89831102     0.00100
H548        H  0.26007273  0.35455050  0.82387523     0.13900
H549        H  0.25814348  0.31088092  0.86904984     0.13900
N550        N  0.20408152  0.04469117  0.50262472    -0.35500
N551        N  0.20568692  0.48933395  0.95888469    -0.56100
N552        N  0.20044016  0.44493412  0.51265937    -0.35500
N553        N  0.20231509  0.49948337  0.55454005    -0.56100
C554        C  0.20818335  0.06445961  0.98891801     0.28100
C555        C  0.21226501  0.06369102  0.52676387     0.28100
C556        C  0.19819769  0.42534831  0.98827020     0.28000
C557        C  0.21220506  0.43185063  0.53912153     0.28000
C558        C  0.21892521  0.02742618  0.94491898     0.36700
C559        C  0.19924440  0.46264633  0.94297876     0.36700
C560        C  0.19965401  0.02798741  0.57073079     0.36700
C561        C  0.20042059  0.47587107  0.57565834     0.36700
C562        C  0.20002388  0.09400184  0.00018349    -0.20800
C563        C  0.22956715  0.08898837  0.51572092    -0.20800
C564        C  0.19555371  0.39540018  0.00097211    -0.20800
C565        C  0.22713257  0.40372768  0.53167041    -0.20800
C566        C  0.23304134  0.01976450  0.91660324    -0.21900
C567        C  0.19381518  0.46943564  0.91160370    -0.21900
C568        C  0.19318706  0.02130702  0.60192212    -0.21900
C569        C  0.19256327  0.48759017  0.60497977    -0.21900
C570        C  0.21735351  0.05810235  0.95780924    -0.17200
C571        C  0.20524890  0.05843065  0.55860923    -0.17200
C572        C  0.20972758  0.44464957  0.56972982    -0.17200
C573        C  0.20028608  0.43193607  0.95579568    -0.17200
H574        H  0.19792605  0.11565810  0.98694483     0.15700
H575        H  0.24002024  0.10782395  0.52925722     0.15700
H576        H  0.19398485  0.37318514  0.98864432     0.15700
H577        H  0.23986801  0.38819720  0.54717041     0.15700
H578        H  0.24596907  0.03502584  0.90102390     0.14000
H579        H  0.18789980  0.45304068  0.89307854     0.14000
H580        H  0.18857859  0.03792206  0.62063598     0.14000
H581        H  0.19030447  0.47454844  0.62669025     0.14000
H582        H  0.19009351  0.02461688  0.50399916     0.27200
H583        H  0.18737705  0.46559084  0.51100746     0.27200
N584        N  0.11257699  0.37784062  0.76747490    -0.02400
C585        C  0.10617026  0.34860117  0.75647429     0.00200
C586        C  0.13106162  0.33760019  0.73881954    -0.22700
C587        C  0.15352445  0.36099678  0.73901135    -0.22900
C588        C  0.14152012  0.38549114  0.75670415     0.00100
H589        H  0.13201210  0.31577737  0.72568432     0.13900
H590        H  0.17542067  0.36087645  0.72615644     0.13900
N591        N  0.37976123  0.10856984  0.76171043    -0.02400
C592        C  0.34884649  0.10245852  0.75883090     0.00200
C593        C  0.33284839  0.12977087  0.75121932    -0.22700
C594        C  0.35504940  0.15351686  0.74954490    -0.22900
C595        C  0.38364675  0.13960950  0.75600091     0.00100
H596        H  0.30801833  0.13199394  0.74638665     0.13900
H597        H  0.35086855  0.17794990  0.74359572     0.13900
N598        N  0.10839622  0.10913387  0.76330178    -0.02400
C599        C  0.10077055  0.13931894  0.75633003     0.00200
C600        C  0.12654874  0.15475505  0.74401508    -0.22700
C601        C  0.15077924  0.13315874  0.74334507    -0.22900
C602        C  0.13882005  0.10539724  0.75527204     0.00100
H603        H  0.12723553  0.17861676  0.73506979     0.13900
H604        H  0.17408634  0.13693383  0.73401852     0.13900
N605        N  0.37901640  0.38012297  0.75930995    -0.02400
C606        C  0.34788515  0.38318581  0.75465135     0.00200
C607        C  0.33488280  0.35432844  0.74709081    -0.22700
C608        C  0.35932941  0.33281522  0.74702980    -0.22900
C609        C  0.38622441  0.34941415  0.75456995     0.00100
H610        H  0.31055803  0.34953631  0.74160634     0.13900
H611        H  0.35775933  0.30799937  0.74137727     0.13900
N612        N  0.44697825  0.48818239  0.78894276    -0.35500
N613        N  0.50019093  0.44439828  0.79188199    -0.56100
N614        N  0.04275543  0.50105154  0.79210934    -0.35500
N615        N  0.49024570  0.04349653  0.79988513    -0.56100
C616        C  0.43261793  0.46103729  0.79691019     0.28100
C617        C  0.42706257  0.01374353  0.80083788     0.28100
C618        C  0.06365489  0.47717624  0.79293422     0.28000
C619        C  0.05653077  0.02870627  0.80234495     0.28000
C620        C  0.47641324  0.42489900  0.78414815     0.36700
C621        C  0.02728509  0.43322453  0.78032661     0.36700
C622        C  0.46313573  0.05979381  0.79756664     0.36700
C623        C  0.01228674  0.06681653  0.80266297     0.36700
C624        C  0.40257872  0.46744853  0.80776224    -0.20800
C625        C  0.39868256  0.00043591  0.80963316    -0.20800
C626        C  0.09274791  0.48850597  0.80215162    -0.20800
C627        C  0.08708751  0.02089479  0.81046152    -0.20800
C628        C  0.48762811  0.39867246  0.76840405    -0.21900
C629        C  0.02007049  0.40500840  0.76554348    -0.21900
C630        C  0.46945644  0.09179006  0.79613748    -0.21900
C631        C  0.99976739  0.09690892  0.80228325    -0.21900
C632        C  0.44464091  0.43070153  0.79071527    -0.17200
C633        C  0.43269954  0.04635523  0.79730818    -0.17200
C634        C  0.04462292  0.05975536  0.80126565    -0.17200
C635        C  0.05772811  0.44602206  0.78320541    -0.17200
H636        H  0.38501758  0.45061109  0.81519021     0.15700
H637        H  0.37734677  0.01253742  0.81623235     0.15700
H638        H  0.11431801  0.47530889  0.80465899     0.15700
H639        H  0.10529780  0.03665859  0.81866103     0.14500
H640        H  0.47420822  0.37937563  0.75867939     0.14000
H641        H  0.03570034  0.38936649  0.75304676     0.14000
H642        H  0.45295445  0.11097995  0.79584817     0.14000
H643        H  0.01210242  0.11909749  0.80181811     0.14000
H644        H  0.46842712  0.49031129  0.77765257     0.27200
H645        H  0.01998621  0.49976892  0.78355184     0.27200
N646        N  0.25716029  0.45720812  0.69038808    -0.05000
N647        N  0.26748674  0.43123976  0.67699825    -0.57200
N648        N  0.23207296  0.03383216  0.68947861    -0.04700
N649        N  0.22277655  0.05992000  0.67531181    -0.59300
N650        N  0.26286578  0.03266153  0.69058457    -0.04300
N651        N  0.27522068  0.05801762  0.67754966    -0.57100
N652        N  0.22634710  0.45797231  0.69012918    -0.04000
N653        N  0.21499100  0.43251458  0.67613480    -0.59600
C654        C  0.24107839  0.41620968  0.66805819     0.97100
C655        C  0.24995745  0.07470601  0.66814462     0.96900
N656        N  0.17751152  0.03352356  0.77121877    -0.05200
N657        N  0.16259790  0.05863938  0.78198916    -0.57700
N658        N  0.17666405  0.45934543  0.74324856    -0.03400
N659        N  0.16436442  0.43308966  0.73219907    -0.59000
N660        N  0.17637962  0.45926635  0.77416109    -0.05300
N661        N  0.16338895  0.43294227  0.78471195    -0.58000
N662        N  0.17926399  0.03450990  0.74036242    -0.03000
N663        N  0.16602157  0.06046005  0.72956511    -0.59100
Mn664      Mn  0.20342549  0.99757150  0.71309308     1.18400
C665        C  0.15568565  0.07515267  0.75570707     0.99200
C666        C  0.15603218  0.41697446  0.75815761     0.99900
N667        N  0.31282847  0.02971961  0.74287984    -0.05300
N668        N  0.32664568  0.05547900  0.73245169    -0.61600
N669        N  0.31073581  0.45571224  0.77166282    -0.04100
N670        N  0.32445509  0.42976270  0.78207192    -0.62300
N671        N  0.30932561  0.45541469  0.74082869    -0.04800
N672        N  0.32173953  0.42921034  0.72959320    -0.61900
N673        N  0.31231727  0.02942019  0.77374473    -0.03700
N674        N  0.32592660  0.05506642  0.78498746    -0.62500
Mn675      Mn  0.28739850  0.99450626  0.71520511     1.10700
C676        C  0.33494945  0.07083018  0.75891001     1.00400
C677        C  0.33100121  0.41347052  0.75553295     1.00500
N678        N  0.22906192  0.45879326  0.82523885    -0.04800
N679        N  0.21803243  0.43341341  0.83936352    -0.60200
N680        N  0.25950984  0.02984934  0.82431319    -0.04100
N681        N  0.27142082  0.05511700  0.83783126    -0.56900
N682        N  0.22863247  0.03096921  0.82461789    -0.05400
N683        N  0.21898713  0.05702852  0.83882863    -0.59700
N684        N  0.25991172  0.45779663  0.82399088    -0.04400
N685        N  0.27047887  0.43161624  0.83692065    -0.56900
Mn686      Mn  0.20081903  0.99551497  0.79807514     1.20200
Mn687      Mn  0.28730993  0.49350645  0.79868239     1.10100
Cl688      Cl  0.24424406  0.99508657  0.75654522    -0.84900
C689        C  0.24414449  0.41683761  0.84644034     0.97400
C690        C  0.24603209  0.07172016  0.84699453     0.97200
C691        C  0.39994886  0.40587310  0.76505369    -0.15400
C692        C  0.42247618  0.40431436  0.78682004    -0.30500
H693        H  0.39636069  0.42768268  0.75213886     0.13700
H694        H  0.42608615  0.38303992  0.80035972     0.14200
C695        C  0.08776790  0.08384820  0.77189126    -0.15400
C696        C  0.06708962  0.08598365  0.79554781    -0.30500
H697        H  0.08957846  0.06198573  0.75870007     0.13700
H698        H  0.06532881  0.10755624  0.80906294     0.14200
C699        C  0.40451020  0.08624830  0.76651874    -0.15400
C700        C  0.40528101  0.06731475  0.79176642    -0.30500
H701        H  0.42427359  0.08668626  0.75041435     0.13700
H702        H  0.38568574  0.06702933  0.80800338     0.14200
C703        C  0.09039765  0.39793882  0.78306637    -0.15400
C704        C  0.08488910  0.42720044  0.77259731    -0.30500
H705        H  0.07484116  0.38773487  0.80051249     0.13700
H706        H  0.09929704  0.43734149  0.75425240     0.14200
C707        C  0.23081547  0.40624658  0.91449499    -0.15400
C708        C  0.20614424  0.40522025  0.93400508    -0.30500
H709        H  0.24538400  0.42726430  0.91372784     0.13700
H710        H  0.19116646  0.38457356  0.93463565     0.14200
C711        C  0.21936623  0.09105016  0.91005076    -0.15400
C712        C  0.22931494  0.08495993  0.93925215    -0.30500
H713        H  0.20103452  0.07651888  0.89981279     0.13700
H714        H  0.24845893  0.09840391  0.94936203     0.14200
C715        C  0.21106723  0.08481578  0.58072012    -0.15400
C716        C  0.23551406  0.08330733  0.60035196    -0.30500
H717        H  0.19735803  0.10623497  0.57869750     0.13700
H718        H  0.24881985  0.06149738  0.60196545     0.14200
C719        C  0.21307578  0.39698065  0.60292968    -0.15400
C720        C  0.22213453  0.42652344  0.59676141    -0.30500
H721        H  0.19537930  0.38605662  0.58813110     0.13700
H722        H  0.24053078  0.43747423  0.61055715     0.14200
C723        C  0.40840813  0.23892295  0.91305636    -0.15400
C724        C  0.40742832  0.21589522  0.93441933    -0.30500
H725        H  0.42998381  0.25225331  0.91006120     0.13700
H726        H  0.38630379  0.20204381  0.93754306     0.14200
C727        C  0.08445612  0.23020233  0.91712389    -0.15400
C728        C  0.06569415  0.20473859  0.91605912    -0.30500
H729        H  0.08454283  0.24488636  0.93803621     0.13700
H730        H  0.06547544  0.18982332  0.89536776     0.14200
C731        C  0.39877426  0.21954328  0.60260251    -0.15400
C732        C  0.40490391  0.22797985  0.57288237    -0.30500
H733        H  0.41337864  0.20175016  0.61367113     0.13700
H734        H  0.39116140  0.24628406  0.56167505     0.14200
C735        C  0.06618863  0.21252440  0.59365761    -0.15400
C736        C  0.08732312  0.23576976  0.59375573    -0.30500
H737        H  0.06363008  0.19727872  0.61392452     0.13700
H738        H  0.08999488  0.25040601  0.57298061     0.14200
N739        N  0.31097406  0.76182002  0.04283222    -0.05000
N740        N  0.32444157  0.77424151  0.06780739    -0.57200
N741        N  0.31077553  0.72825164  0.47137413    -0.04700
N742        N  0.32681657  0.71752828  0.44703097    -0.59300
N743        N  0.31005275  0.75923451  0.47122912    -0.04300
N744        N  0.32542566  0.77021909  0.44662030    -0.57100
N745        N  0.31243319  0.73086548  0.04385931    -0.04000
N746        N  0.32742507  0.72158552  0.06945886    -0.59600
C747        C  0.33477575  0.74898071  0.08403909     0.97100
C748        C  0.33619617  0.74398987  0.43205987     0.96900
N749        N  0.22724902  0.67623893  0.46992741    -0.05200
N750        N  0.21697598  0.66193751  0.44427652    -0.57700
N751        N  0.26124223  0.67721566  0.04436770    -0.03400
N752        N  0.27202278  0.66316448  0.06983270    -0.59000
N753        N  0.23039746  0.67609737  0.04376197    -0.05300
N754        N  0.21957161  0.66127479  0.06873251    -0.58000
N755        N  0.25813215  0.67708413  0.47011758    -0.03000
N756        N  0.26946280  0.66387181  0.44452569    -0.59100
Mn757      Mn  0.28492850  0.70123585  0.50711433     1.18400
C758        C  0.24366055  0.65438471  0.42878957     0.99200
C759        C  0.24578853  0.65296355  0.08445665     0.99900
N760        N  0.25753665  0.81154191  0.47154190    -0.05300
N761        N  0.26853124  0.82622174  0.44651796    -0.61600
N762        N  0.22736261  0.81216811  0.04135179    -0.04100
N763        N  0.21636765  0.82763503  0.06596558    -0.62300
N764        N  0.25821181  0.81262707  0.04124385    -0.04800
N765        N  0.26884117  0.82818467  0.06591495    -0.61900
N766        N  0.22667353  0.81208622  0.47164616    -0.03700
N767        N  0.21607773  0.82721706  0.44661538    -0.62500
Mn768      Mn  0.28556876  0.78681926  0.00548368     1.10700
C769        C  0.24249144  0.83633896  0.43145679     1.00400
C770        C  0.24252641  0.83781571  0.08080684     1.00500
N771        N  0.17738849  0.72691680  0.04337248    -0.04800
N772        N  0.16312087  0.71611402  0.06874040    -0.60200
N773        N  0.17507003  0.75964304  0.47142756    -0.04100
N774        N  0.16067845  0.77125181  0.44656455    -0.56900
N775        N  0.17484147  0.72861692  0.47071278    -0.05400
N776        N  0.16009420  0.71852315  0.44529956    -0.59700
N777        N  0.17726629  0.75795985  0.04324298    -0.04400
N778        N  0.16317827  0.76887897  0.06865307    -0.56900
Mn779      Mn  0.19999045  0.70078567  0.50673590     1.20200
Mn780      Mn  0.20119718  0.78498086  0.00586749     1.10100
Cl781      Cl  0.24445887  0.74351262  0.00665362    -0.84900
C782        C  0.15444019  0.74254847  0.08421187     0.97400
C783        C  0.15123149  0.74541133  0.43071935     0.97200
N784        N  0.10691331  0.73643425  0.11803194    -0.02400
C785        C  0.13775292  0.74274188  0.11449723     0.00200
C786        C  0.15081719  0.75132408  0.14290680    -0.22700
C787        C  0.12679687  0.75042759  0.16469583    -0.22900
C788        C  0.10001563  0.74125763  0.14875773     0.00100
H789        H  0.17485668  0.75832252  0.14716160     0.13900
H790        H  0.12844734  0.75691707  0.18921844     0.13900
N791        N  0.37861017  0.73969076  0.12226922    -0.02400
C792        C  0.35012187  0.75160834  0.11488261     0.00200
C793        C  0.33961579  0.77120253  0.13855808    -0.22700
C794        C  0.36252146  0.77119197  0.16140727    -0.22900
C795        C  0.38619803  0.75166419  0.15078241     0.00100
H796        H  0.31832413  0.78509543  0.13856833     0.13900
H797        H  0.36252528  0.78500451  0.18277050     0.13900
N798        N  0.10504820  0.73923929  0.39497262    -0.02400
C799        C  0.09888149  0.74690437  0.36477315     0.00200
C800        C  0.12542412  0.75922006  0.35074454    -0.22700
C801        C  0.14871424  0.75909035  0.37325623    -0.22900
C802        C  0.13540979  0.74677589  0.40011621     0.00100
H803        H  0.12729644  0.76845452  0.32713993     0.13900
H804        H  0.17233051  0.76807723  0.37066614     0.13900
N805        N  0.38098583  0.73804226  0.39369720    -0.02400
C806        C  0.38497772  0.74496650  0.36306094     0.00200
C807        C  0.35719033  0.75544990  0.35013039    -0.22700
C808        C  0.33529181  0.75505493  0.37403516    -0.22900
C809        C  0.35058198  0.74430221  0.40059725     0.00100
H810        H  0.35349481  0.76346540  0.32630200     0.13900
H811        H  0.31117526  0.76287456  0.37248330     0.13900
N812        N  0.44662624  0.70678807  0.01232894    -0.35500
N813        N  0.48968335  0.69314764  0.45692370    -0.56100
N814        N  0.04016119  0.69871483  0.00928724    -0.35500
N815        N  0.50057810  0.70748365  0.05465725    -0.56100
C816        C  0.42758177  0.70757680  0.48557256     0.28100
C817        C  0.43418476  0.72032683  0.03829045     0.28100
C818        C  0.05762372  0.69406439  0.47466381     0.28000
C819        C  0.05521974  0.69476620  0.03694508     0.28000
C820        C  0.46228592  0.69120782  0.44115110     0.36700
C821        C  0.01188804  0.69490205  0.43766139     0.36700
C822        C  0.47716078  0.70850733  0.07587897     0.36700
C823        C  0.01114454  0.70965209  0.07276777     0.36700
C824        C  0.40236798  0.72569343  0.49553215    -0.20800
C825        C  0.40714241  0.73664282  0.03019935    -0.20800
C826        C  0.08954648  0.69397391  0.48097105    -0.20800
C827        C  0.08609642  0.68618677  0.03114173    -0.20800
C828        C  0.46814570  0.68640856  0.40946827    -0.21900
C829        C  0.99889480  0.69142012  0.40803329    -0.21900
C830        C  0.48855194  0.70217993  0.10567305    -0.21900
C831        C  0.00063925  0.72526932  0.09934187    -0.21900
C832        C  0.43247730  0.69848799  0.45400578    -0.17200
C833        C  0.44633720  0.71809416  0.06914556    -0.17200
C834        C  0.04282967  0.70196890  0.06704654    -0.17200
C835        C  0.04441379  0.69605608  0.44404237    -0.17200
H836        H  0.38358841  0.73530115  0.48140791     0.15700
H837        H  0.39218759  0.75057653  0.04527554     0.15700
H838        H  0.10850544  0.69333328  0.46423457     0.15700
H839        H  0.10436455  0.68183199  0.04825162     0.15700
H840        H  0.45113962  0.68460389  0.39070152     0.14000
H841        H  0.01102460  0.68765577  0.38605132     0.14000
H842        H  0.47557462  0.70171954  0.12747793     0.14000
H843        H  0.01434836  0.73340301  0.11910724     0.14000
H844        H  0.46613967  0.69214800  0.01141573     0.27200
H845        H  0.01761687  0.70710946  0.00651143     0.27200
N846        N  0.02879069  0.75815958  0.18750887    -0.05000
N847        N  0.05380445  0.76833375  0.17225180    -0.57200
N848        N  0.45720565  0.73046664  0.18834173    -0.04700
N849        N  0.43131758  0.72119699  0.17379033    -0.59300
N850        N  0.45834541  0.76140062  0.18959556    -0.04300
N851        N  0.43326151  0.77384593  0.17645464    -0.57100
N852        N  0.02829921  0.72718717  0.18801868    -0.04000
N853        N  0.05297255  0.71564825  0.17305856    -0.59600
C854        C  0.06837612  0.74160495  0.16288260     0.97100
C855        C  0.41675596  0.74864943  0.16655021     0.96900
N856        N  0.45554818  0.67623514  0.27070244    -0.05200
N857        N  0.43021784  0.66134686  0.28085562    -0.57700
N858        N  0.02823399  0.67775437  0.24208160    -0.03400
N859        N  0.05413544  0.66474760  0.23113235    -0.59000
N860        N  0.02850471  0.67809335  0.27301041    -0.05300
N861        N  0.05460328  0.66507856  0.28368818    -0.58000
N862        N  0.45571322  0.67746902  0.23980686    -0.03000
N863        N  0.43032321  0.66385835  0.22837196    -0.59100
Mn864      Mn  0.49298492  0.70230833  0.21347896     1.18400
C865        C  0.41481143  0.65372044  0.25414086     0.99200
C866        C  0.07024722  0.65697550  0.25725793     0.99900
N867        N  0.45834498  0.81164701  0.24152553    -0.05300
N868        N  0.43277362  0.82485916  0.23002431    -0.61600
N869        N  0.03033677  0.81278808  0.26952505    -0.04100
N870        N  0.05569753  0.82799928  0.27924894    -0.62300
N871        N  0.02996819  0.81109144  0.23866188    -0.04800
N872        N  0.05512280  0.82462585  0.22679159    -0.61900
N873        N  0.45771822  0.81179217  0.27238820    -0.03700
N874        N  0.43174453  0.82542716  0.28256750    -0.62500
Mn875      Mn  0.49502913  0.78666993  0.21531758     1.10700
C876        C  0.41652292  0.83336068  0.25583022     1.00400
C877        C  0.07082581  0.83521320  0.25221880     1.00500
N878        N  0.02832353  0.73092373  0.32482326    -0.04800
N879        N  0.05243626  0.72021297  0.34116786    -0.60200
N880        N  0.45619536  0.75902208  0.32348272    -0.04100
N881        N  0.43102365  0.77027869  0.33763672    -0.56900
N882        N  0.45572414  0.72798713  0.32354001    -0.05400
N883        N  0.43036250  0.71751517  0.33802569    -0.59700
N884        N  0.02905192  0.76190189  0.32345613    -0.04400
N885        N  0.05380030  0.77286950  0.33854894    -0.56900
Mn886      Mn  0.49192148  0.70069824  0.29848463     1.20200
Mn887      Mn  0.49355871  0.78593034  0.29948899     1.10100
Cl888      Cl  0.49335294  0.74381217  0.25676754    -0.84900
C889        C  0.06785738  0.74666359  0.34981975     0.97400
C890        C  0.41528434  0.74418998  0.34663410     0.97200
N891        N  0.23655020  0.88308539  0.11847600    -0.02400
C892        C  0.24405712  0.88783414  0.14896062     0.00200
C893        C  0.25481416  0.86017342  0.16222243    -0.22700
C894        C  0.25400844  0.83766962  0.13877401    -0.22900
C895        C  0.24274490  0.85246068  0.11213437     0.00100
H896        H  0.26337622  0.85697772  0.18593269     0.13900
H897        H  0.26202797  0.81354363  0.14060756     0.13900
N898        N  0.23976121  0.60822780  0.12246537    -0.02400
C899        C  0.24572013  0.63882578  0.11582978     0.00200
C900        C  0.25550932  0.65445763  0.14258349    -0.22700
C901        C  0.25557371  0.63251469  0.16651627    -0.22900
C902        C  0.24583897  0.60445518  0.15329280     0.00100
H903        H  0.26280853  0.67882943  0.14427375     0.13900
H904        H  0.26271991  0.63640590  0.19058406     0.13900
N905        N  0.23313513  0.61036528  0.39094935    -0.02400
C906        C  0.24528890  0.63898091  0.39792952     0.00200
C907        C  0.26514399  0.64890505  0.37431049    -0.22700
C908        C  0.26521556  0.62549630  0.35195859    -0.22900
C909        C  0.24549424  0.60209244  0.36279875     0.00100
H910        H  0.27945597  0.66997302  0.37422879     0.13900
H911        H  0.27945857  0.62481879  0.33093719     0.13900
N912        N  0.23895134  0.88147069  0.39292081    -0.02400
C913        C  0.24531835  0.88501846  0.36208886     0.00200
C914        C  0.25370150  0.85642024  0.34906619    -0.22700
C915        C  0.25235411  0.83450399  0.37308353    -0.22900
C916        C  0.24315611  0.85056618  0.39981639     0.00100
H917        H  0.26064167  0.85206733  0.32501933     0.13900
H918        H  0.25837933  0.80978036  0.37142927     0.13900
N919        N  0.20416374  0.54361330  0.00132548    -0.35500
N920        N  0.20658077  0.99003135  0.46071451    -0.56100
N921        N  0.19950490  0.94826493  0.00163755    -0.35500
N922        N  0.19583934  0.99158190  0.05502694    -0.56100
C923        C  0.21290490  0.55624759  0.47616387     0.28100
C924        C  0.21216260  0.56264705  0.02557381     0.28100
C925        C  0.21163419  0.92738119  0.48876787     0.28000
C926        C  0.19365208  0.92732579  0.02481809     0.28000
C927        C  0.20210483  0.51226688  0.43942574     0.36700
C928        C  0.19987489  0.96331647  0.44484395     0.36700
C929        C  0.19762096  0.52782885  0.07037143     0.36700
C930        C  0.19453798  0.96412797  0.07097094     0.36700
C931        C  0.22798979  0.58417331  0.48394140    -0.20800
C932        C  0.22927667  0.58807935  0.01447956    -0.20800
C933        C  0.22802248  0.90155628  0.49999070    -0.20800
C934        C  0.18812927  0.89791986  0.01169053    -0.20800
C935        C  0.19443828  0.50065455  0.41002664    -0.21900
C936        C  0.19272583  0.97013114  0.41382467    -0.21900
C937        C  0.19093181  0.52210767  0.10171160    -0.21900
C938        C  0.19373171  0.97016172  0.10296443    -0.21900
C939        C  0.21100124  0.54354961  0.44553132    -0.17200
C940        C  0.20498659  0.55770919  0.05758322    -0.17200
C941        C  0.19559776  0.93351824  0.05744495    -0.17200
C942        C  0.20496285  0.93282028  0.45692886    -0.17200
H943        H  0.24113515  0.59963674  0.46871077     0.15700
H944        H  0.23944670  0.60711083  0.02798326     0.15700
H945        H  0.23799561  0.88236337  0.48657026     0.15700
H946        H  0.18323194  0.87608255  0.02382149     0.15700
H947        H  0.19221281  0.51377345  0.38835974     0.14000
H948        H  0.18729998  0.95363266  0.39522085     0.14000
H949        H  0.18767345  0.53925475  0.12022099     0.14000
H950        H  0.19153267  0.95325713  0.12175132     0.14000
H951        H  0.19020232  0.52355920  0.00261815     0.27200
H952        H  0.20638013  0.97129415  0.00468653     0.27200
N953        N  0.10927012  0.87935758  0.26318168    -0.02400
C954        C  0.10130491  0.85139815  0.24979595     0.00200
C955        C  0.12453717  0.84170970  0.22934495    -0.22700
C956        C  0.14743979  0.86453889  0.22996291    -0.22900
C957        C  0.13748112  0.88735274  0.25084908     0.00100
H958        H  0.12417003  0.82102884  0.21445665     0.13900
H959        H  0.16829234  0.86525234  0.21548675     0.13900
N960        N  0.37541716  0.61083361  0.26637412    -0.02400
C961        C  0.34658428  0.60359407  0.25517482     0.00200
C962        C  0.33644446  0.62678013  0.23477591    -0.22700
C963        C  0.35996982  0.64896173  0.23325449    -0.22900
C964        C  0.38372955  0.63852444  0.25269264     0.00100
H965        H  0.31519525  0.62651718  0.22086891     0.13900
H966        H  0.36039460  0.66957764  0.21830563     0.13900
N967        N  0.10510644  0.61013061  0.26130907    -0.02400
C968        C  0.10094142  0.64124786  0.25671836     0.00200
C969        C  0.12917215  0.65550702  0.24961174    -0.22700
C970        C  0.15154243  0.63184943  0.24986679    -0.22900
C971        C  0.13602038  0.60417861  0.25721477     0.00100
H972        H  0.13298029  0.68011824  0.24416601     0.13900
H973        H  0.17621918  0.63443727  0.24450745     0.13900
N974        N  0.38182353  0.88029299  0.26079504    -0.02400
C975        C  0.35124574  0.88672993  0.25501513     0.00200
C976        C  0.33599014  0.85963929  0.24534243    -0.22700
C977        C  0.35815417  0.83583718  0.24515664    -0.22900
C978        C  0.38600963  0.84941242  0.25470340     0.00100
H979        H  0.31167303  0.85759934  0.23831322     0.13900
H980        H  0.35450424  0.81160679  0.23813033     0.13900
N981        N  0.44488763  0.00093343  0.29865788    -0.35500
N982        N  0.48812045  0.94799262  0.29436722    -0.56100
N983        N  0.04273059  0.98970682  0.29862492    -0.35500
N984        N  0.49674085  0.54103143  0.29345932    -0.56100
C985        C  0.42588013  0.97689300  0.29023381     0.28100
C986        C  0.42885517  0.52503678  0.28894453     0.28100
C987        C  0.05531068  0.96320057  0.28621188     0.28000
C988        C  0.05915542  0.51347315  0.28726140     0.28000
C989        C  0.46149952  0.93267591  0.30215789     0.36700
C990        C  0.01154158  0.92682034  0.29838837     0.36700
C991        C  0.47328722  0.56226118  0.29559788     0.36700
C992        C  0.02437881  0.55792121  0.30071842     0.36700
C993        C  0.40046490  0.98825533  0.27343753    -0.20800
C994        C  0.39994451  0.51694645  0.27633044    -0.20800
C995        C  0.08270061  0.97075812  0.27024431    -0.20800
C996        C  0.08413108  0.50212041  0.26983708    -0.20800
C997        C  0.46809187  0.90169515  0.31012750    -0.21900
C998        C  0.99957101  0.89756973  0.30644068    -0.21900
C999        C  0.48520787  0.59209564  0.30126194    -0.21900
C1000       C  0.01821291  0.58912925  0.30818580    -0.21900
C1001       C  0.43119645  0.94489056  0.29683224    -0.17200
C1002       C  0.44172013  0.55580279  0.28868870    -0.17200
C1003       C  0.05434586  0.54540307  0.29448234    -0.17200
C1004       C  0.04267075  0.93247260  0.28901433    -0.17200
H1005       H  0.38156095  0.97483655  0.26300488     0.15700
H1006       H  0.38360962  0.53189159  0.26397880     0.15700
H1007       H  0.09762035  0.95534288  0.25670692     0.15700
H1008       H  0.10290233  0.51553530  0.25917157     0.14500
H1009       H  0.45152938  0.88344205  0.31643291     0.14000
H1010       H  0.01238815  0.87570784  0.30907092     0.14000
H1011       H  0.47224558  0.61391786  0.30332962     0.14000
H1012       H  0.03503774  0.60758435  0.31306496     0.14000
H1013       H  0.46504136  0.99919064  0.31240148     0.27200
H1014       H  0.02263688  0.99132694  0.31243220     0.27200
N1015       N  0.25939353  0.95911810  0.18888596    -0.05000
N1016       N  0.27011271  0.93362661  0.17466718    -0.57200
N1017       N  0.22775236  0.53261909  0.19049996    -0.04700
N1018       N  0.21776963  0.55870280  0.17681682    -0.59300
N1019       N  0.25859483  0.53202288  0.19127233    -0.04300
N1020       N  0.27026535  0.55782846  0.17853117    -0.57100
N1021       N  0.22852502  0.95957231  0.18837477    -0.04000
N1022       N  0.21763932  0.93440425  0.17359410    -0.59600
C1023       C  0.24386573  0.91864423  0.16499151     0.97100
C1024       C  0.24457945  0.57410718  0.16964062     0.96900
N1025       N  0.17438495  0.53197297  0.27250839    -0.05200
N1026       N  0.15953349  0.55705125  0.28342007    -0.57700
N1027       N  0.17674140  0.95955681  0.24021550    -0.03400
N1028       N  0.16268373  0.93466842  0.22818688    -0.59000
N1029       N  0.17599922  0.95857306  0.27110814    -0.05300
N1030       N  0.16098209  0.93296028  0.28066134    -0.58000
N1031       N  0.17496401  0.53245804  0.24161186    -0.03000
N1032       N  0.16061563  0.55789600  0.23091139    -0.59100
Mn1033     Mn  0.20010672  0.49597743  0.21443849     1.18400
C1034       C  0.15076986  0.57275811  0.25720469     0.99200
C1035       C  0.15276892  0.91842259  0.25352434     0.99900
N1036       N  0.30952602  0.53058684  0.24254837    -0.05300
N1037       N  0.32262677  0.55632809  0.23133048    -0.61600
N1038       N  0.31209099  0.95807790  0.27130311    -0.04100
N1039       N  0.32728216  0.93308078  0.28184196    -0.62300
N1040       N  0.31178627  0.95833862  0.24044605    -0.04800
N1041       N  0.32667897  0.93339020  0.22932991    -0.61900
N1042       N  0.30993661  0.53080606  0.27341573    -0.03700
N1043       N  0.32379823  0.55677298  0.28385306    -0.62500
Mn1044     Mn  0.28454371  0.49441352  0.21548527     1.10700
C1045       C  0.33159688  0.57233883  0.25715906     1.00400
C1046       C  0.33662994  0.91816933  0.25541427     1.00500
N1047       N  0.22886940  0.95685623  0.32323038    -0.04800
N1048       N  0.21836365  0.93130602  0.33759215    -0.60200
N1049       N  0.25733923  0.52985768  0.32443077    -0.04100
N1050       N  0.26892391  0.55502195  0.33830118    -0.56900
N1051       N  0.22646189  0.53050036  0.32493431    -0.05400
N1052       N  0.21643979  0.55612961  0.33959200    -0.59700
N1053       N  0.25976896  0.95667042  0.32247743    -0.04400
N1054       N  0.27084490  0.93093234  0.33597938    -0.56900
Mn1055     Mn  0.19907765  0.49465380  0.29909104     1.20200
Mn1056     Mn  0.28667592  0.99397478  0.29847392     1.10100
Cl1057     Cl  0.24197863  0.49464513  0.25712523    -0.84900
C1058       C  0.24481296  0.91542003  0.34531573     0.97400
C1059       C  0.24331968  0.57101454  0.34780263     0.97200
C1060       C  0.40680070  0.90171151  0.26804655    -0.15400
C1061       C  0.40491963  0.92273226  0.29137293    -0.30500
H1062       H  0.42865281  0.89939332  0.25508325     0.13700
H1063       H  0.38347703  0.92539381  0.30476505     0.14200
C1064       C  0.08010656  0.58821200  0.26647764    -0.15400
C1065       C  0.08098968  0.56715808  0.28975581    -0.30500
H1066       H  0.05884748  0.59062358  0.25255186     0.13700
H1067       H  0.10175869  0.56462147  0.30422834     0.14200
C1068       C  0.39458625  0.58994950  0.28475090    -0.15400
C1069       C  0.42337487  0.58210508  0.27499200    -0.30500
H1070       H  0.38389930  0.57691788  0.30391095     0.13700
H1071       H  0.43366719  0.59425686  0.25509739     0.14200
C1072       C  0.09045117  0.89956063  0.28275268    -0.15400
C1073       C  0.06030101  0.90536345  0.27580835    -0.30500
H1074       H  0.10212862  0.91420132  0.30011605     0.13700
H1075       H  0.04855811  0.89182551  0.25770049     0.14200
C1076       C  0.23269861  0.90709839  0.41391929    -0.15400
C1077       C  0.20944280  0.90619112  0.43492937    -0.30500
H1078       H  0.24643381  0.92854148  0.41137560     0.13700
H1079       H  0.19537457  0.88510806  0.43776381     0.14200
C1080       C  0.21510647  0.59127418  0.41221379    -0.15400
C1081       C  0.22393153  0.56170394  0.41880260    -0.30500
H1082       H  0.19714716  0.60243731  0.42648185     0.13700
H1083       H  0.24270220  0.55070416  0.40557598     0.14200
C1084       C  0.21035518  0.58452969  0.07935811    -0.15400
C1085       C  0.23287310  0.58282611  0.10122929    -0.30500
H1086       H  0.19704966  0.60601727  0.07606830     0.13700
H1087       H  0.24555374  0.56080277  0.10424690     0.14200
C1088       C  0.22861796  0.90753155  0.09667355    -0.15400
C1089       C  0.20288446  0.90643213  0.07847645    -0.30500
H1090       H  0.24307457  0.92863499  0.09670887     0.13700
H1091       H  0.18819820  0.88555284  0.07829525     0.14200
C1092       C  0.40608248  0.73033927  0.41470145    -0.15400
C1093       C  0.40604402  0.70414901  0.43209873    -0.30500
H1094       H  0.42676245  0.74534567  0.41470382     0.13700
H1095       H  0.38578799  0.68865142  0.43236887     0.14200
C1096       C  0.08314173  0.73039097  0.41895344    -0.15400
C1097       C  0.06567774  0.70407940  0.41741658    -0.30500
H1098       H  0.08247454  0.74469584  0.44012487     0.13700
H1099       H  0.06616857  0.68944079  0.39652813     0.14200
C1100       C  0.39816387  0.72191466  0.10125885    -0.15400
C1101       C  0.42774576  0.73091565  0.09556705    -0.30500
H1102       H  0.38745090  0.70407948  0.08642422     0.13700
H1103       H  0.43838968  0.74960664  0.10929491     0.14200
C1104       C  0.06491846  0.70647778  0.09358148    -0.15400
C1105       C  0.08599109  0.72979039  0.09248477    -0.30500
H1106       H  0.06186412  0.69275257  0.11483821     0.13700
H1107       H  0.08871682  0.74315092  0.07087835     0.14200
N1108       N  0.30887347  0.75869722  0.54422775    -0.05000
N1109       N  0.32252610  0.76985774  0.56966150    -0.57200
N1110       N  0.31296900  0.72867889  0.97092191    -0.04700
N1111       N  0.32787927  0.71745941  0.94609508    -0.59300
N1112       N  0.31168101  0.75961213  0.96978892    -0.04300
N1113       N  0.32562944  0.77007900  0.94412642    -0.57100
N1114       N  0.30981797  0.72771611  0.54406037    -0.04000
N1115       N  0.32460559  0.71713108  0.56928992    -0.59600
C1116       C  0.33238006  0.74381318  0.58491277     0.97100
C1117       C  0.33602598  0.74358383  0.92985736     0.96900
N1118       N  0.23107843  0.67518934  0.97104530    -0.05200
N1119       N  0.22128815  0.66102027  0.94513772    -0.57700
N1120       N  0.25797569  0.67554150  0.54285541    -0.03400
N1121       N  0.26908671  0.66114147  0.56795775    -0.59000
N1122       N  0.22709989  0.67511950  0.54289687    -0.05300
N1123       N  0.21661125  0.66031802  0.56811171    -0.58000
N1124       N  0.26194231  0.67651054  0.97154988    -0.03000
N1125       N  0.27371560  0.66374592  0.94593282    -0.59100
Mn1126     Mn  0.28803281  0.70234740  0.00787659     1.18400
C1127       C  0.24823031  0.65403402  0.92983861     0.99200
C1128       C  0.24309928  0.65140326  0.58321168     0.99900
N1129       N  0.25825728  0.80993048  0.96829785    -0.05300
N1130       N  0.26885856  0.82362405  0.94257976    -0.61600
N1131       N  0.22657979  0.81138730  0.54484159    -0.04100
N1132       N  0.21616772  0.82616782  0.57020012    -0.62300
N1133       N  0.25742155  0.81062854  0.54471985    -0.04800
N1134       N  0.26862596  0.82441873  0.57012771    -0.61900
N1135       N  0.22738543  0.80983027  0.96859330    -0.03700
N1136       N  0.21631465  0.82372234  0.94313702    -0.62500
Mn1137     Mn  0.28419218  0.78580257  0.50781244     1.10700
C1138       C  0.24245836  0.83212974  0.92725465     1.00400
C1139       C  0.24276557  0.83420879  0.58566414     1.00500
N1140       N  0.17483881  0.72733316  0.54360304    -0.04800
N1141       N  0.16005619  0.71614191  0.56850172    -0.60200
N1142       N  0.17660229  0.75658790  0.97013382    -0.04100
N1143       N  0.16188421  0.76677972  0.94483726    -0.56900
N1144       N  0.17717861  0.72559236  0.97053620    -0.05400
N1145       N  0.16271530  0.71404793  0.94559200    -0.59700
N1146       N  0.17510769  0.75837250  0.54417575    -0.04400
N1147       N  0.16065142  0.76886942  0.56951561    -0.56900
Mn1148     Mn  0.20309494  0.69994042  0.00713000     1.20200
Mn1149     Mn  0.19993731  0.78622072  0.50808222     1.10100
Cl1150     Cl  0.24216779  0.74345793  0.50738066    -0.84900
C1151       C  0.15107612  0.74233176  0.58418127     0.97400
C1152       C  0.15302674  0.74004840  0.93005391     0.97200
N1153       N  0.10536737  0.73664436  0.62079647    -0.02400
C1154       C  0.13608507  0.74226584  0.61523642     0.00200
C1155       C  0.15053986  0.75269709  0.64239983    -0.22700
C1156       C  0.12768245  0.75354736  0.66538028    -0.22900
C1157       C  0.10022125  0.74369865  0.65125360     0.00100
H1158       H  0.17470419  0.76009670  0.64491984     0.13900
H1159       H  0.13055884  0.76145256  0.68936884     0.13900
N1160       N  0.37779772  0.73507751  0.62129407    -0.02400
C1161       C  0.34828772  0.74528245  0.61551568     0.00200
C1162       C  0.33757948  0.76342815  0.64019364    -0.22700
C1163       C  0.36144355  0.76454739  0.66194784    -0.22900
C1164       C  0.38590232  0.74707137  0.64973487     0.00100
H1165       H  0.31547164  0.77583053  0.64148990     0.13900
H1166       H  0.36144699  0.77777178  0.68368591     0.13900
N1167       N  0.10805582  0.73609486  0.89242027    -0.02400
C1168       C  0.10414500  0.74268184  0.86162381     0.00200
C1169       C  0.13260860  0.75005971  0.84799315    -0.22700
C1170       C  0.15477564  0.74829675  0.87162102    -0.22900
C1171       C  0.13892996  0.73977569  0.89862974     0.00100
H1172       H  0.13668558  0.75682262  0.82384515     0.13900
H1173       H  0.17947150  0.75385827  0.86959603     0.13900
N1174       N  0.38115828  0.73970581  0.89188927    -0.02400
C1175       C  0.38464134  0.74441409  0.86076639     0.00200
C1176       C  0.35594662  0.75065363  0.84703703    -0.22700
C1177       C  0.33403040  0.74998010  0.87098088    -0.22900
C1178       C  0.35024037  0.74323302  0.89831306     0.00100
H1179       H  0.35150276  0.75568439  0.82253034     0.13900
H1180       H  0.30916688  0.75466471  0.86879833     0.13900
N1181       N  0.44629651  0.70086075  0.51035031    -0.35500
N1182       N  0.48953662  0.69946558  0.95911721    -0.56100
N1183       N  0.04171964  0.69305963  0.50210329    -0.35500
N1184       N  0.49974990  0.70492815  0.55267694    -0.56100
C1185       C  0.42790400  0.71466321  0.98791373     0.28100
C1186       C  0.43338270  0.71509618  0.53580764     0.28100
C1187       C  0.06104823  0.69340311  0.98597824     0.28000
C1188       C  0.06304674  0.69452106  0.52561737     0.28000
C1189       C  0.46203949  0.69776364  0.94348924     0.36700
C1190       C  0.02488416  0.69777656  0.93991643     0.36700
C1191       C  0.47633630  0.70582485  0.57388109     0.36700
C1192       C  0.02570195  0.69611537  0.57087270     0.36700
C1193       C  0.40296305  0.73271633  0.99854695    -0.20800
C1194       C  0.40619342  0.73070153  0.52703800    -0.20800
C1195       C  0.08988553  0.68574685  0.99903385    -0.20800
C1196       C  0.09298870  0.69480831  0.51296983    -0.20800
C1197       C  0.46745560  0.69049199  0.91221277    -0.21900
C1198       C  0.01878798  0.69876194  0.90797889    -0.21900
C1199       C  0.48794771  0.70099313  0.60385064    -0.21900
C1200       C  0.01899828  0.69188653  0.60244378    -0.21900
C1201       C  0.43259487  0.70635274  0.95618411    -0.17200
C1202       C  0.44531093  0.71431224  0.56682602    -0.17200
C1203       C  0.05633353  0.69666037  0.55809256    -0.17200
C1204       C  0.05533453  0.69777018  0.95349014    -0.17200
H1205       H  0.38419327  0.74291865  0.98478448     0.15700
H1206       H  0.39089359  0.74486295  0.54156803     0.15700
H1207       H  0.11158388  0.68075192  0.98685897     0.15700
H1208       H  0.11511989  0.69553694  0.52533157     0.15700
H1209       H  0.45028157  0.68801708  0.89366570     0.14000
H1210       H  0.03551077  0.69796321  0.88905619     0.14000
H1211       H  0.47499744  0.70074389  0.62566953     0.14000
H1212       H  0.03530666  0.68621464  0.62106068     0.14000
H1213       H  0.46614192  0.68660262  0.50995290     0.27200
H1214       H  0.01768886  0.69235427  0.50469135     0.27200
N1215       N  0.02868538  0.75925342  0.68954265    -0.05000
N1216       N  0.05427662  0.76999290  0.67577651    -0.57200
N1217       N  0.45772137  0.72915210  0.68720746    -0.04700
N1218       N  0.43242322  0.71887066  0.67233661    -0.59300
N1219       N  0.45781492  0.76014310  0.68834736    -0.04300
N1220       N  0.43250172  0.77156921  0.67464115    -0.57100
N1221       N  0.02828506  0.72825972  0.68913931    -0.04000
N1222       N  0.05349623  0.71726218  0.67476892    -0.59600
C1223       C  0.06930009  0.74359811  0.66646892     0.97100
C1224       C  0.41708962  0.74566370  0.66452044     0.96900
N1225       N  0.45635404  0.67579453  0.76961596    -0.05200
N1226       N  0.43065988  0.66147088  0.77968215    -0.57700
N1227       N  0.02901113  0.67641695  0.74147690    -0.03400
N1228       N  0.05421948  0.66205257  0.73041187    -0.59000
N1229       N  0.02948626  0.67653093  0.77237028    -0.05300
N1230       N  0.05488928  0.66218490  0.78291591    -0.58000
N1231       N  0.45669162  0.67681722  0.73873226    -0.03000
N1232       N  0.43111178  0.66364546  0.72720167    -0.59100
Mn1233     Mn  0.49382280  0.70169857  0.71253496     1.18400
C1234       C  0.41523569  0.65399630  0.75290963     0.99200
C1235       C  0.06981711  0.65287891  0.75654592     0.99900
N1236       N  0.45804703  0.81196117  0.74052147    -0.05300
N1237       N  0.43276583  0.82637803  0.72972339    -0.61600
N1238       N  0.03198529  0.81260208  0.77110599    -0.04100
N1239       N  0.05765838  0.82765617  0.78029639    -0.62300
N1240       N  0.03069232  0.81155045  0.74026351    -0.04800
N1241       N  0.05543226  0.82538948  0.72785031    -0.61900
N1242       N  0.45804950  0.81196343  0.77138281    -0.03700
N1243       N  0.43281608  0.82637132  0.78224868    -0.62500
Mn1244     Mn  0.49443114  0.78646189  0.71384326     1.10700
C1245       C  0.41755558  0.83561983  0.75601441     1.00400
C1246       C  0.07193527  0.83550523  0.75293704     1.00500
N1247       N  0.03190912  0.72899639  0.82348727    -0.04800
N1248       N  0.05733337  0.71754679  0.83709349    -0.60200
N1249       N  0.45627971  0.75901155  0.82192494    -0.04100
N1250       N  0.43079820  0.77016343  0.83566444    -0.56900
N1251       N  0.45592446  0.72796217  0.82189671    -0.05400
N1252       N  0.43029211  0.71740518  0.83583212    -0.59700
N1253       N  0.03273643  0.76001501  0.82322780    -0.04400
N1254       N  0.05879347  0.77025786  0.83666162    -0.56900
Mn1255     Mn  0.49265569  0.70054572  0.79740492     1.20200
Mn1256     Mn  0.49376999  0.78591761  0.79810022     1.10100
Cl1257     Cl  0.49371555  0.74363329  0.75548442    -0.84900
C1258       C  0.07369851  0.74350379  0.84535172     0.97400
C1259       C  0.41493205  0.74398075  0.84422603     0.97200
N1260       N  0.23297066  0.87854716  0.62383034    -0.02400
C1261       C  0.24539169  0.88645656  0.65213414     0.00200
C1262       C  0.26408904  0.86227506  0.66313696    -0.22700
C1263       C  0.26341379  0.83891931  0.64069579    -0.22900
C1264       C  0.24426779  0.84954023  0.61677868     0.00100
H1265       H  0.27813985  0.86236141  0.68431493     0.13900
H1266       H  0.27691179  0.81736276  0.64093426     0.13900
N1267       N  0.23886823  0.60659287  0.62141197    -0.02400
C1268       C  0.24392177  0.63730793  0.61468997     0.00200
C1269       C  0.25424148  0.65297103  0.64124798    -0.22700
C1270       C  0.25545430  0.63089553  0.66508144    -0.22900
C1271       C  0.24598534  0.60269502  0.65197491     0.00100
H1272       H  0.26105999  0.67748438  0.64287887     0.13900
H1273       H  0.26300981  0.63485036  0.68901440     0.13900
N1274       N  0.23806767  0.61102250  0.89080616    -0.02400
C1275       C  0.25037845  0.63931979  0.89866782     0.00200
C1276       C  0.27074550  0.64958928  0.87563244    -0.22700
C1277       C  0.27109626  0.62662761  0.85280146    -0.22900
C1278       C  0.25101337  0.60315018  0.86279859     0.00100
H1279       H  0.28514474  0.67059200  0.87623095     0.13900
H1280       H  0.28564769  0.62633058  0.83198693     0.13900
N1281       N  0.23727806  0.87935444  0.89287749    -0.02400
C1282       C  0.24005108  0.88520189  0.86174040     0.00200
C1283       C  0.24680886  0.85754185  0.84591414    -0.22700
C1284       C  0.24816446  0.83394894  0.86824686    -0.22900
C1285       C  0.24226150  0.84821540  0.89676401     0.00100
H1286       H  0.25125341  0.85496119  0.82103312     0.13900
H1287       H  0.25347578  0.80933939  0.86420287     0.13900
N1288       N  0.20043914  0.54321266  0.50231737    -0.35500
N1289       N  0.20660208  0.00134742  0.95827169    -0.56100
N1290       N  0.20364284  0.94659464  0.51277274    -0.35500
N1291       N  0.20558902  0.00110982  0.55478639    -0.56100
C1292       C  0.21672801  0.55638236  0.97500902     0.28100
C1293       C  0.20789418  0.56240015  0.52653730     0.28100
C1294       C  0.19798288  0.93268472  0.97397698     0.28000
C1295       C  0.21544220  0.93357594  0.53920437     0.28000
C1296       C  0.20487039  0.51292245  0.93777678     0.36700
C1297       C  0.21302698  0.97722260  0.93856724     0.36700
C1298       C  0.19582362  0.52626114  0.57039785     0.36700
C1299       C  0.20342637  0.97745787  0.57583729     0.36700
C1300       C  0.23255305  0.58389014  0.98275403    -0.20800
C1301       C  0.22442616  0.58827100  0.51563651    -0.20800
C1302       C  0.19038931  0.90139986  0.97964326    -0.20800
C1303       C  0.23083984  0.90568283  0.53177213    -0.20800
C1304       C  0.19761749  0.50133323  0.90824622    -0.21900
C1305       C  0.22882997  0.98812158  0.91231187    -0.21900
C1306       C  0.18927495  0.51954578  0.60156971    -0.21900
C1307       C  0.19590844  0.98925838  0.60522375    -0.21900
C1308       C  0.21420174  0.54399764  0.94418366    -0.17200
C1309       C  0.20108076  0.55676290  0.55836092    -0.17200
C1310       C  0.21243553  0.94613836  0.56980067    -0.17200
C1311       C  0.20595109  0.94523308  0.94412911    -0.17200
H1312       H  0.24592715  0.59906604  0.96744964     0.15700
H1313       H  0.23423674  0.60737965  0.52925936     0.15700
H1314       H  0.18767082  0.88271580  0.96256976     0.15700
H1315       H  0.24355257  0.89016063  0.54733109     0.15700
H1316       H  0.19561616  0.51445832  0.88656455     0.14000
H1317       H  0.23771050  0.97449687  0.89276155     0.14000
H1318       H  0.18426868  0.53611944  0.62022229     0.14000
H1319       H  0.19356495  0.97620910  0.62691281     0.14000
H1320       H  0.18712725  0.52268718  0.50360979     0.27200
H1321       H  0.19018423  0.96701053  0.51118936     0.27200
N1322       N  0.10951379  0.88053622  0.76128181    -0.02400
C1323       C  0.10249565  0.85158439  0.74985657     0.00200
C1324       C  0.12577805  0.84160483  0.72958160    -0.22700
C1325       C  0.14793433  0.86524450  0.72863550    -0.22900
C1326       C  0.13739005  0.88887184  0.74831677     0.00100
H1327       H  0.12588370  0.82017427  0.71578990     0.13900
H1328       H  0.16881933  0.86568682  0.71419762     0.13900
N1329       N  0.37690578  0.61021623  0.76367685    -0.02400
C1330       C  0.34856332  0.60217389  0.75159286     0.00200
C1331       C  0.33780732  0.62566921  0.73187748    -0.22700
C1332       C  0.36045316  0.64882238  0.73162636    -0.22900
C1333       C  0.38420189  0.63868577  0.75126250     0.00100
H1334       H  0.31661588  0.62523908  0.71788037     0.13900
H1335       H  0.36038811  0.66990833  0.71733642     0.13900
N1336       N  0.10874606  0.60883354  0.76291829    -0.02400
C1337       C  0.10153620  0.63917312  0.75632696     0.00200
C1338       C  0.12806198  0.65498905  0.74629749    -0.22700
C1339       C  0.15234223  0.63335353  0.74665972    -0.22900
C1340       C  0.13962067  0.60522427  0.75690577     0.00100
H1341       H  0.12940671  0.67925820  0.73860616     0.13900
H1342       H  0.17629192  0.63745017  0.73930553     0.13900
N1343       N  0.37985969  0.88100720  0.75946779    -0.02400
C1344       C  0.34875641  0.88451563  0.75523005     0.00200
C1345       C  0.33487944  0.85576986  0.74911979    -0.22700
C1346       C  0.35875852  0.83369377  0.74958260    -0.22900
C1347       C  0.38615267  0.84995187  0.75599754     0.00100
H1348       H  0.31032461  0.85140658  0.74435135     0.13900
H1349       H  0.35647502  0.80870559  0.74503628     0.13900
N1350       N  0.44761742  0.99062138  0.79357843    -0.35500
N1351       N  0.50066909  0.94691386  0.78931892    -0.56100
N1352       N  0.04114636  0.00265229  0.79268914    -0.35500
N1353       N  0.48792122  0.54262880  0.79388943    -0.56100
C1354       C  0.43287355  0.96276875  0.79781754     0.28100
C1355       C  0.42638605  0.51173669  0.79413135     0.28100
C1356       C  0.06160985  0.97842995  0.79432362     0.28000
C1357       C  0.05812819  0.52748265  0.80068020     0.28000
C1358       C  0.47670179  0.92771923  0.78150488     0.36700
C1359       C  0.02520958  0.93529152  0.78013830     0.36700
C1360       C  0.46161032  0.55629682  0.78258247     0.36700
C1361       C  0.01323640  0.56486308  0.80334787     0.36700
C1362       C  0.40248928  0.96823483  0.80813632    -0.20800
C1363       C  0.39852107  0.49958189  0.80566337    -0.20800
C1364       C  0.09034473  0.98908461  0.80523396    -0.20800
C1365       C  0.08921075  0.52028524  0.80721451    -0.20800
C1366       C  0.48748792  0.90211987  0.76441948    -0.21900
C1367       C  0.01762780  0.90757519  0.76460913    -0.21900
C1368       C  0.46883264  0.58471029  0.76824596    -0.21900
C1369       C  0.00036873  0.59480158  0.80436010    -0.21900
C1370       C  0.44517813  0.93288008  0.78963008    -0.17200
C1371       C  0.43127283  0.54325842  0.78536063    -0.17200
C1372       C  0.04558337  0.55832062  0.80038306    -0.17200
C1373       C  0.05573382  0.94770768  0.78343652    -0.17200
H1374       H  0.38458745  0.95086850  0.81313011     0.15700
H1375       H  0.37734542  0.51247430  0.81129555     0.15700
H1376       H  0.11152846  0.97543032  0.80858870     0.15700
H1377       H  0.10752046  0.53639054  0.81446078     0.14500
H1378       H  0.47384544  0.88298680  0.75462087     0.14000
H1379       H  0.03301016  0.89206529  0.75165845     0.14000
H1380       H  0.45329944  0.60045071  0.75584158     0.14000
H1381       H  0.01241870  0.61718760  0.80399004     0.14000
H1382       H  0.46961557  0.99373893  0.78383512     0.27200
H1383       H  0.01894032  0.00187339  0.78278680     0.27200
N1384       N  0.26008795  0.95914235  0.68930879    -0.05000
N1385       N  0.27066503  0.93283298  0.67672019    -0.57200
N1386       N  0.22854215  0.53135145  0.69035139    -0.04700
N1387       N  0.21839448  0.55731305  0.67658904    -0.59300
N1388       N  0.25936585  0.53047507  0.69025092    -0.04300
N1389       N  0.27091662  0.55591942  0.67668297    -0.57100
N1390       N  0.22929439  0.96014829  0.68787375    -0.04000
N1391       N  0.21828205  0.93453514  0.67385801    -0.59600
C1392       C  0.24448706  0.91783673  0.66700267     0.97100
C1393       C  0.24510304  0.57230402  0.66829649     0.96900
N1394       N  0.17786889  0.53320908  0.77387796    -0.05200
N1395       N  0.16416149  0.55914999  0.78438492    -0.57700
N1396       N  0.17682415  0.96117968  0.73841888    -0.03400
N1397       N  0.16336781  0.93610698  0.72603210    -0.59000
N1398       N  0.17527876  0.96018623  0.76928796    -0.05300
N1399       N  0.16022717  0.93446458  0.77844458    -0.58000
N1400       N  0.17811021  0.53303527  0.74297151    -0.03000
N1401       N  0.16493562  0.55888055  0.73184522    -0.59100
Mn1402     Mn  0.20133603  0.49549474  0.71583296     1.18400
C1403       C  0.15631756  0.57485394  0.75784001     0.99200
C1404       C  0.15295259  0.91979425  0.75112196     0.99900
N1405       N  0.31127887  0.52909947  0.74044690    -0.05300
N1406       N  0.32375452  0.55487584  0.72859948    -0.61600
N1407       N  0.31024602  0.95597392  0.77228238    -0.04100
N1408       N  0.32395383  0.93004645  0.78262723    -0.62300
N1409       N  0.31059724  0.95667155  0.74142192    -0.04800
N1410       N  0.32432856  0.93123381  0.73005086    -0.61900
N1411       N  0.31271785  0.52956964  0.77126925    -0.03700
N1412       N  0.32671196  0.55567514  0.78105252    -0.62500
Mn1413     Mn  0.28514531  0.49296617  0.71467015     1.10700
C1414       C  0.33342145  0.57110749  0.75403520     1.00400
C1415       C  0.33244239  0.91492701  0.75599535     1.00500
N1416       N  0.22627033  0.95751955  0.82301201    -0.04800
N1417       N  0.21468371  0.93252983  0.83751315    -0.60200
N1418       N  0.26171934  0.53092876  0.82374511    -0.04100
N1419       N  0.27382359  0.55620818  0.83702940    -0.56900
N1420       N  0.23086238  0.53178521  0.82513728    -0.05400
N1421       N  0.22138830  0.55755899  0.83985389    -0.59700
N1422       N  0.25715569  0.95665876  0.82326771    -0.04400
N1423       N  0.26715776  0.93111128  0.83786195    -0.56900
Mn1424     Mn  0.20237451  0.49585099  0.80072722     1.20200
Mn1425     Mn  0.28568144  0.99286143  0.79935507     1.10100
Cl1426     Cl  0.24398323  0.49448787  0.75759817    -0.84900
C1427       C  0.24049600  0.91656301  0.84698666     0.97400
C1428       C  0.24852112  0.57244048  0.84707294     0.97200
C1429       C  0.40132597  0.90660604  0.76400389    -0.15400
C1430       C  0.42348612  0.90596510  0.78615263    -0.30500
H1431       H  0.39794255  0.92798501  0.75034666     0.13700
H1432       H  0.42704406  0.88515137  0.80045765     0.14200
C1433       C  0.08767789  0.58358983  0.77035069    -0.15400
C1434       C  0.06740364  0.58503645  0.79440376    -0.30500
H1435       H  0.08940000  0.56211071  0.75654173     0.13700
H1436       H  0.06588056  0.60625027  0.80851365     0.14200
C1437       C  0.39795300  0.59102940  0.78189679    -0.15400
C1438       C  0.40372617  0.56104341  0.77379812    -0.30500
H1439       H  0.41297499  0.60239580  0.79911212     0.13700
H1440       H  0.38975648  0.54962222  0.75583696     0.14200
C1441       C  0.08854570  0.89975700  0.77950072    -0.15400
C1442       C  0.08279046  0.92969085  0.77126580    -0.30500
H1443       H  0.07357671  0.88850572  0.79681506     0.13700
H1444       H  0.09655464  0.94100843  0.75311379     0.14200
C1445       C  0.23277096  0.90132016  0.91812786    -0.15400
C1446       C  0.21023563  0.92324738  0.91739091    -0.30500
H1447       H  0.24653458  0.89833483  0.93942133     0.13700
H1448       H  0.19590604  0.92630866  0.89657809     0.14200
C1449       C  0.21921947  0.59183813  0.91125820    -0.15400
C1450       C  0.22743198  0.56204717  0.91753824    -0.30500
H1451       H  0.20131092  0.60308204  0.92552531     0.13700
H1452       H  0.24613110  0.55086344  0.90436211     0.14200
C1453       C  0.20676275  0.58290165  0.58069036    -0.15400
C1454       C  0.23125265  0.58143118  0.60029083    -0.30500
H1455       H  0.19258068  0.60405672  0.57918580     0.13700
H1456       H  0.24501887  0.55988869  0.60156920     0.14200
C1457       C  0.21549340  0.89815501  0.60260242    -0.15400
C1458       C  0.22462783  0.92775499  0.59665023    -0.30500
H1459       H  0.19765166  0.88737337  0.58787432     0.13700
H1460       H  0.24342609  0.93841488  0.61010225     0.14200
C1461       C  0.40654519  0.73454887  0.91339579    -0.15400
C1462       C  0.40585828  0.71126269  0.93453147    -0.30500
H1463       H  0.42781554  0.74841977  0.91067648     0.13700
H1464       H  0.38514221  0.69669272  0.93714734     0.14200
C1465       C  0.08320360  0.73012566  0.91436616    -0.15400
C1466       C  0.08282073  0.70438715  0.93279905    -0.30500
H1467       H  0.06296302  0.74569157  0.91393450     0.13700
H1468       H  0.10289565  0.68867140  0.93305447     0.14200
C1469       C  0.39709709  0.71839805  0.59910080    -0.15400
C1470       C  0.42644422  0.72777548  0.59286471    -0.30500
H1471       H  0.38640215  0.70032174  0.58453530     0.13700
H1472       H  0.43702506  0.74656791  0.60649901     0.14200
C1473       C  0.08277011  0.70371023  0.57983312    -0.15400
C1474       C  0.08130818  0.72918101  0.59848708    -0.30500
H1475       H  0.10353242  0.68892457  0.57980047     0.13700
H1476       H  0.06023010  0.74360935  0.59853260     0.14200
N1477       N  0.81044183  0.26108720  0.04317539    -0.05000
N1478       N  0.82327111  0.27227336  0.06902265    -0.57200
N1479       N  0.81271395  0.23186124  0.46937901    -0.04700
N1480       N  0.82722455  0.22085518  0.44430622    -0.59300
N1481       N  0.81057243  0.26274674  0.46813425    -0.04300
N1482       N  0.82323133  0.27343588  0.44191466    -0.57100
N1483       N  0.81157484  0.23011041  0.04289715    -0.04000
N1484       N  0.82567467  0.21957550  0.06853992    -0.59600
C1485       C  0.83283607  0.24625449  0.08446454     0.97100
C1486       C  0.83355521  0.24702511  0.42747669     0.96900
N1487       N  0.73154672  0.17720792  0.47031312    -0.05200
N1488       N  0.72109027  0.16292259  0.44474544    -0.57700
N1489       N  0.76038401  0.17717982  0.04183034    -0.03400
N1490       N  0.77185374  0.16242303  0.06657453    -0.59000
N1491       N  0.72950489  0.17638186  0.04214242    -0.05300
N1492       N  0.71940489  0.16093334  0.06711879    -0.58000
N1493       N  0.76240045  0.17886414  0.46998352    -0.03000
N1494       N  0.77348726  0.16616923  0.44396223    -0.59100
Mn1495     Mn  0.78903623  0.20487914  0.50634047     1.18400
C1496       C  0.74755969  0.15616759  0.42862061     0.99200
C1497       C  0.74610705  0.15196084  0.08180066     0.99900
N1498       N  0.75700873  0.31283745  0.46846292    -0.05300
N1499       N  0.76695089  0.32698989  0.44272923    -0.61600
N1500       N  0.72744921  0.31124135  0.04491522    -0.04100
N1501       N  0.71668470  0.32477984  0.07072693    -0.62300
N1502       N  0.75830226  0.31195021  0.04450245    -0.04800
N1503       N  0.76916233  0.32604271  0.06998051    -0.61900
N1504       N  0.72617643  0.31200757  0.46907967    -0.03700
N1505       N  0.71448294  0.32557569  0.44371595    -0.62500
Mn1506     Mn  0.78525798  0.28797202  0.00718425     1.10700
C1507       C  0.74020108  0.33517439  0.42780051     1.00400
C1508       C  0.74295537  0.33408064  0.08593866     1.00500
N1509       N  0.67608476  0.22792437  0.04345438    -0.04800
N1510       N  0.66116769  0.21693893  0.06844689    -0.60200
N1511       N  0.67646055  0.25818598  0.47075544    -0.04100
N1512       N  0.66167386  0.26866932  0.44563650    -0.56900
N1513       N  0.67728926  0.22718286  0.47076997    -0.05400
N1514       N  0.66286757  0.21595034  0.44561919    -0.59700
N1515       N  0.67599352  0.25893913  0.04370679    -0.04400
N1516       N  0.66121776  0.26964361  0.06877604    -0.56900
Mn1517     Mn  0.70416928  0.20135478  0.50699234     1.20200
Mn1518     Mn  0.70080106  0.28663513  0.00775324     1.10100
Cl1519     Cl  0.74365286  0.24484522  0.00672303    -0.84900
C1520       C  0.65168504  0.24328019  0.08373848     0.97400
C1521       C  0.65296220  0.24215613  0.43045334     0.97200
N1522       N  0.60631106  0.23766223  0.12120502    -0.02400
C1523       C  0.63685939  0.24377245  0.11503498     0.00200
C1524       C  0.65115773  0.25582683  0.14164394    -0.22700
C1525       C  0.62846630  0.25699912  0.16481912    -0.22900
C1526       C  0.60119313  0.24574039  0.15140384     0.00100
H1527       H  0.67507318  0.26415707  0.14360924     0.13900
H1528       H  0.63131015  0.26602103  0.18841318     0.13900
N1529       N  0.87648906  0.23610295  0.12253845    -0.02400
C1530       C  0.84776038  0.24770555  0.11553747     0.00200
C1531       C  0.83723136  0.26714376  0.13933682    -0.22700
C1532       C  0.86040184  0.26757616  0.16182356    -0.22900
C1533       C  0.88425607  0.24846815  0.15088208     0.00100
H1534       H  0.81591241  0.28100783  0.13944780     0.13900
H1535       H  0.86058177  0.28165395  0.18302187     0.13900
N1536       N  0.60812027  0.23780707  0.39256662    -0.02400
C1537       C  0.60380727  0.24564544  0.36209481     0.00200
C1538       C  0.63183125  0.25524116  0.34893443    -0.22700
C1539       C  0.65412119  0.25331215  0.37244839    -0.22900
C1540       C  0.63883262  0.24249870  0.39897595     0.00100
H1541       H  0.63548892  0.26361741  0.32522460     0.13900
H1542       H  0.67845548  0.26039363  0.37076100     0.13900
N1543       N  0.87957468  0.23785155  0.39273216    -0.02400
C1544       C  0.88617549  0.24305606  0.36211124     0.00200
C1545       C  0.85996120  0.25472610  0.34688230    -0.22700
C1546       C  0.83651817  0.25697106  0.36912614    -0.22900
C1547       C  0.84946258  0.24663782  0.39698572     0.00100
H1548       H  0.85851356  0.26227952  0.32265720     0.13900
H1549       H  0.81306809  0.26608509  0.36559212     0.13900
N1550       N  0.94484623  0.20540426  0.01118991    -0.35500
N1551       N  0.99808835  0.19535116  0.45675139    -0.56100
N1552       N  0.54329116  0.19471516  0.00329849    -0.35500
N1553       N  0.99817504  0.20352991  0.05377804    -0.56100
C1554       C  0.93055299  0.19788760  0.47321798     0.28100
C1555       C  0.93203520  0.21768198  0.03763449     0.28100
C1556       C  0.56248279  0.19474058  0.48635176     0.28000
C1557       C  0.56407376  0.19749010  0.02720413     0.28000
C1558       C  0.97476601  0.19631030  0.43522104     0.36700
C1559       C  0.52602314  0.19815078  0.44042605     0.36700
C1560       C  0.97471864  0.20424354  0.07503205     0.36700
C1561       C  0.52620675  0.19617957  0.07179942     0.36700
C1562       C  0.89980623  0.19058246  0.48101752    -0.20800
C1563       C  0.90518910  0.23450899  0.02993192    -0.20800
C1564       C  0.59153098  0.18785101  0.49935097    -0.20800
C1565       C  0.59387293  0.20203373  0.01516229    -0.20800
C1566       C  0.98718064  0.19571946  0.40520238    -0.21900
C1567       C  0.51976255  0.19879565  0.40849890    -0.21900
C1568       C  0.98622059  0.19774699  0.10474914    -0.21900
C1569       C  0.51889670  0.19206066  0.10325042    -0.21900
C1570       C  0.94248740  0.19856187  0.44226476    -0.17200
C1571       C  0.94389733  0.21420761  0.06852481    -0.17200
C1572       C  0.55701639  0.19690392  0.05960158    -0.17200
C1573       C  0.55654009  0.19838915  0.45382434    -0.17200
H1574       H  0.88135325  0.18293162  0.46530467     0.15700
H1575       H  0.89004571  0.24774914  0.04543050     0.15700
H1576       H  0.61326024  0.18309419  0.48713547     0.15700
H1577       H  0.61557061  0.20476818  0.02792124     0.15700
H1578       H  0.97473909  0.19579285  0.38310517     0.14000
H1579       H  0.53636932  0.19768739  0.38946370     0.14000
H1580       H  0.97329762  0.19716771  0.12659147     0.14000
H1581       H  0.53479808  0.18621207  0.12216634     0.14000
H1582       H  0.96433718  0.19077201  0.00972414     0.27200
H1583       H  0.51953612  0.19023390  0.00535200     0.27200
N1584       N  0.52902581  0.26029706  0.18908381    -0.05000
N1585       N  0.55477264  0.27141887  0.17590488    -0.57200
N1586       N  0.95613537  0.23020815  0.18795029    -0.04700
N1587       N  0.93072381  0.21989768  0.17329790    -0.59300
N1588       N  0.95603048  0.26113677  0.18935395    -0.04300
N1589       N  0.93050456  0.27258745  0.17618768    -0.57100
N1590       N  0.52889721  0.22932851  0.18844846    -0.04000
N1591       N  0.55451441  0.21869332  0.17451470    -0.59600
C1592       C  0.57028675  0.24524646  0.16678226     0.97100
C1593       C  0.91510506  0.24672881  0.16611616     0.96900
N1594       N  0.95726560  0.17688752  0.27057322    -0.05200
N1595       N  0.93172741  0.16269490  0.28119151    -0.57700
N1596       N  0.52991865  0.17814137  0.24031690    -0.03400
N1597       N  0.55544744  0.16517026  0.22846624    -0.59000
N1598       N  0.53078559  0.17765901  0.27121234    -0.05300
N1599       N  0.55690918  0.16398135  0.28098434    -0.58000
N1600       N  0.95678790  0.17819869  0.23968005    -0.03000
N1601       N  0.93077591  0.16541713  0.22872781    -0.59100
Mn1602     Mn  0.99303519  0.20340816  0.21257947     1.18400
C1603       C  0.91553509  0.15567535  0.25476642     0.99200
C1604       C  0.57197113  0.15647287  0.25402830     0.99900
N1605       N  0.95534048  0.31103294  0.24184878    -0.05300
N1606       N  0.92915168  0.32343763  0.23088712    -0.61600
N1607       N  0.53063241  0.31316611  0.27065329    -0.04100
N1608       N  0.55641869  0.32785804  0.27998500    -0.62300
N1609       N  0.52950234  0.31202349  0.23983840    -0.04800
N1610       N  0.55444377  0.32543267  0.22750628    -0.61900
N1611       N  0.95546469  0.31131684  0.27273863    -0.03700
N1612       N  0.92933363  0.32432150  0.28342924    -0.62500
Mn1613     Mn  0.99223849  0.28753731  0.21458898     1.10700
C1614       C  0.91322437  0.33159498  0.25697595     1.00400
C1615       C  0.57090811  0.33526269  0.25266042     1.00500
N1616       N  0.53214334  0.23005937  0.32324873    -0.04800
N1617       N  0.55756126  0.21928599  0.33744749    -0.60200
N1618       N  0.95766229  0.25879976  0.32425676    -0.04100
N1619       N  0.93255746  0.26929296  0.33902047    -0.56900
N1620       N  0.95785287  0.22778990  0.32385408    -0.05400
N1621       N  0.93283690  0.21656920  0.33840823    -0.59700
N1622       N  0.53236016  0.26110421  0.32278480    -0.04400
N1623       N  0.55799977  0.27200838  0.33651365    -0.56900
Mn1624     Mn  0.99408780  0.20167675  0.29764972     1.20200
Mn1625     Mn  0.99314000  0.28676502  0.29903906     1.10100
Cl1626     Cl  0.99314298  0.24482109  0.25600292    -0.84900
C1627       C  0.57329630  0.24566880  0.34574963     0.97400
C1628       C  0.91761220  0.24277173  0.34810918     0.97200
N1629       N  0.73845715  0.38176165  0.12028490    -0.02400
C1630       C  0.74185063  0.38786193  0.15119148     0.00200
C1631       C  0.74837694  0.36031198  0.16723782    -0.22700
C1632       C  0.74907231  0.33646542  0.14505439    -0.22900
C1633       C  0.74309077  0.35051873  0.11639947     0.00100
H1634       H  0.75291823  0.35792601  0.19212545     0.13900
H1635       H  0.75400108  0.31181580  0.14929962     0.13900
N1636       N  0.74077571  0.10679001  0.11977139    -0.02400
C1637       C  0.74730766  0.13728732  0.11304339     0.00200
C1638       C  0.75956557  0.15208027  0.13926448    -0.22700
C1639       C  0.76040833  0.12981226  0.16288531    -0.22900
C1640       C  0.74864942  0.10234793  0.15010860     0.00100
H1641       H  0.76798882  0.17609618  0.14074551     0.13900
H1642       H  0.76930157  0.13309219  0.18644816     0.13900
N1643       N  0.73533630  0.11282325  0.38979055    -0.02400
C1644       C  0.74861231  0.14086297  0.39758716     0.00200
C1645       C  0.76725766  0.15153423  0.37331254    -0.22700
C1646       C  0.76575625  0.12908385  0.34999611    -0.22900
C1647       C  0.74612011  0.10554911  0.36076588     0.00100
H1648       H  0.78165178  0.17254727  0.37321940     0.13900
H1649       H  0.77908119  0.12899755  0.32837211     0.13900
N1650       N  0.73503559  0.38003694  0.38973863    -0.02400
C1651       C  0.74108533  0.38374258  0.35889278     0.00200
C1652       C  0.74935570  0.35530716  0.34547109    -0.22700
C1653       C  0.74843127  0.33324318  0.36932296    -0.22900
C1654       C  0.73958016  0.34915635  0.39625705     0.00100
H1655       H  0.75625283  0.35123841  0.32135970     0.13900
H1656       H  0.75479415  0.30861718  0.36749026     0.13900
N1657       N  0.70178843  0.04394761  0.00013351    -0.35500
N1658       N  0.70302438  0.48806332  0.45861393    -0.56100
N1659       N  0.69447431  0.44500131  0.00947880    -0.35500
N1660       N  0.70128608  0.49790385  0.05312974    -0.56100
C1661       C  0.70321402  0.06435916  0.48787051     0.28100
C1662       C  0.71013268  0.06301677  0.02413802     0.28100
C1663       C  0.71049885  0.42606231  0.48738078     0.28000
C1664       C  0.70011705  0.42922390  0.03650964     0.28000
C1665       C  0.71546963  0.02815670  0.44390453     0.36700
C1666       C  0.69644585  0.46097879  0.44331884     0.36700
C1667       C  0.69586615  0.02803576  0.06814986     0.36700
C1668       C  0.69582236  0.47448506  0.07385564     0.36700
C1669       C  0.69309875  0.09315315  0.49947079    -0.20800
C1670       C  0.72783957  0.08797448  0.01296986    -0.20800
C1671       C  0.72836284  0.40125704  0.49862990    -0.20800
C1672       C  0.70558090  0.39777712  0.02956718    -0.20800
C1673       C  0.73020607  0.02063817  0.41584401    -0.21900
C1674       C  0.68807367  0.46725797  0.41247875    -0.21900
C1675       C  0.68777030  0.02183703  0.09907717    -0.21900
C1676       C  0.68955988  0.48703107  0.10327418    -0.21900
C1677       C  0.71300353  0.05877170  0.45679845    -0.17200
C1678       C  0.70254693  0.05817641  0.05591672    -0.17200
C1679       C  0.69994144  0.44213101  0.06730850    -0.17200
C1680       C  0.70289293  0.43078717  0.45559457    -0.17200
H1681       H  0.68946902  0.11470641  0.48637887     0.15700
H1682       H  0.73835341  0.10687005  0.02639379     0.15700
H1683       H  0.73902743  0.38241941  0.48523347     0.15700
H1684       H  0.70953254  0.37867110  0.04562523     0.15700
H1685       H  0.74307435  0.03605073  0.40035233     0.14000
H1686       H  0.68238160  0.45040225  0.39427008     0.14000
H1687       H  0.68231097  0.03877264  0.11727874     0.14000
H1688       H  0.68506446  0.47439687  0.12485603     0.14000
H1689       H  0.68739777  0.02418238  0.00170722     0.27200
H1690       H  0.68829301  0.46851538  0.00751692     0.27200
N1691       N  0.60879555  0.37973904  0.26230108    -0.02400
C1692       C  0.60113953  0.35147720  0.24956833     0.00200
C1693       C  0.62404396  0.34183757  0.22874895    -0.22700
C1694       C  0.64658427  0.36501305  0.22855732    -0.22900
C1695       C  0.63663283  0.38793628  0.24931461     0.00100
H1696       H  0.62361849  0.32098799  0.21411871     0.13900
H1697       H  0.66717793  0.36581307  0.21371864     0.13900
N1698       N  0.87716877  0.11187165  0.26653520    -0.02400
C1699       C  0.84812057  0.10464384  0.25580944     0.00200
C1700       C  0.83699248  0.12845304  0.23671017    -0.22700
C1701       C  0.86013089  0.15105172  0.23542706    -0.22900
C1702       C  0.88461602  0.14022099  0.25375040     0.00100
H1703       H  0.81524619  0.12848169  0.22360632     0.13900
H1704       H  0.85977083  0.17230048  0.22138240     0.13900
N1705       N  0.60640827  0.10936859  0.25894521    -0.02400
C1706       C  0.60235400  0.14017755  0.25248047     0.00200
C1707       C  0.63014645  0.15338321  0.24230279    -0.22700
C1708       C  0.65217764  0.12945255  0.24269499    -0.22900
C1709       C  0.63691437  0.10266002  0.25312381     0.00100
H1710       H  0.63382979  0.17743885  0.23473298     0.13900
H1711       H  0.67640835  0.13119889  0.23532461     0.13900
N1712       N  0.87873963  0.37870762  0.26219229    -0.02400
C1713       C  0.84830943  0.38542353  0.25582963     0.00200
C1714       C  0.83302390  0.35854220  0.24560546    -0.22700
C1715       C  0.85495278  0.33453147  0.24581024    -0.22900
C1716       C  0.88270588  0.34774824  0.25618241     0.00100
H1717       H  0.80891991  0.35682449  0.23777865     0.13900
H1718       H  0.85131431  0.31046784  0.23821493     0.13900
N1719       N  0.94313819  0.50054523  0.29746358    -0.35500
N1720       N  0.98609595  0.44766511  0.29461978    -0.56100
N1721       N  0.54049802  0.48891019  0.29570953    -0.35500
N1722       N  0.99953653  0.04261687  0.29560982    -0.56100
C1723       C  0.92413376  0.47654865  0.28877767     0.28100
C1724       C  0.93236943  0.02750467  0.28542588     0.28100
C1725       C  0.55299909  0.46230564  0.28356950     0.28000
C1726       C  0.56089025  0.01350929  0.28645851     0.28000
C1727       C  0.95929624  0.43212278  0.30134435     0.36700
C1728       C  0.51031824  0.42537823  0.29835483     0.36700
C1729       C  0.97614777  0.06398796  0.29758643     0.36700
C1730       C  0.52630406  0.05773131  0.30123731     0.36700
C1731       C  0.89900370  0.48805688  0.27164747    -0.20800
C1732       C  0.90471691  0.01999822  0.26984091    -0.20800
C1733       C  0.57970571  0.46977969  0.26638687    -0.20800
C1734       C  0.58537870  0.00239453  0.26815490    -0.20800
C1735       C  0.96580777  0.40103270  0.30900395    -0.21900
C1736       C  0.49909190  0.39585203  0.30646691    -0.21900
C1737       C  0.98800201  0.09324480  0.30581956    -0.21900
C1738       C  0.52022340  0.08887439  0.30905670    -0.21900
C1739       C  0.92907797  0.44448280  0.29561381    -0.17200
C1740       C  0.94498251  0.05822672  0.28827615    -0.17200
C1741       C  0.55626265  0.04529187  0.29449078    -0.17200
C1742       C  0.54104851  0.43152296  0.28776512    -0.17200
H1743       H  0.88015339  0.47471974  0.26100265     0.15700
H1744       H  0.88950238  0.03549809  0.25670457     0.15700
H1745       H  0.59438887  0.45421315  0.25274307     0.15700
H1746       H  0.60388162  0.01596654  0.25722854     0.14500
H1747       H  0.94920253  0.38259319  0.31461145     0.14000
H1748       H  0.51221801  0.37406767  0.30791331     0.14000
H1749       H  0.97515706  0.11510404  0.30830574     0.14000
H1750       H  0.53712411  0.10723356  0.31404489     0.14000
H1751       H  0.96306736  0.49879812  0.31152792     0.27200
H1752       H  0.52098859  0.49065467  0.31030072     0.27200
N1753       N  0.75844099  0.45994847  0.18865340    -0.05000
N1754       N  0.76875749  0.43402900  0.17494190    -0.57200
N1755       N  0.73022817  0.03125720  0.18899295    -0.04700
N1756       N  0.72033549  0.05657013  0.17381578    -0.59300
N1757       N  0.76106440  0.03114730  0.19043248    -0.04300
N1758       N  0.77279716  0.05640251  0.17674187    -0.57100
N1759       N  0.72760860  0.46098938  0.18778362    -0.04000
N1760       N  0.71631630  0.43584784  0.17333938    -0.59600
C1761       C  0.74227102  0.41948646  0.16523188     0.97100
C1762       C  0.74720437  0.07190472  0.16642112     0.96900
N1763       N  0.67592098  0.03149762  0.27080177    -0.05200
N1764       N  0.66040617  0.05651357  0.28085473    -0.57700
N1765       N  0.67565341  0.46022308  0.23891632    -0.03400
N1766       N  0.66195100  0.43524671  0.22664313    -0.59000
N1767       N  0.67449956  0.45907336  0.26977073    -0.05300
N1768       N  0.65951158  0.43343748  0.27910942    -0.58000
N1769       N  0.67673792  0.03109709  0.23991366    -0.03000
N1770       N  0.66195183  0.05588171  0.22837222    -0.59100
Mn1771     Mn  0.70269262  0.99456171  0.21384504     1.18400
C1772       C  0.65145233  0.07120344  0.25413247     0.99200
C1773       C  0.65176013  0.41896390  0.25187954     0.99900
N1774       N  0.81135962  0.03149330  0.24273390    -0.05300
N1775       N  0.82454283  0.05723114  0.23153375    -0.61600
N1776       N  0.81006931  0.45733044  0.27183565    -0.04100
N1777       N  0.82456882  0.43196397  0.28244151    -0.62300
N1778       N  0.81012306  0.45766168  0.24096986    -0.04800
N1779       N  0.82463799  0.43246161  0.22991386    -0.61900
N1780       N  0.81162084  0.03180681  0.27359313    -0.03700
N1781       N  0.82540828  0.05776272  0.28405532    -0.62500
Mn1782     Mn  0.78695062  0.99471383  0.21593557     1.10700
C1783       C  0.83339705  0.07325767  0.25743679     1.00400
C1784       C  0.83395492  0.41697091  0.25607285     1.00500
N1785       N  0.72615612  0.45662543  0.32214884    -0.04800
N1786       N  0.71508481  0.43071228  0.33529235    -0.60200
N1787       N  0.75864969  0.03232032  0.32387087    -0.04100
N1788       N  0.76994719  0.05796909  0.33716625    -0.56900
N1789       N  0.72775139  0.03284049  0.32388552    -0.05400
N1790       N  0.71746457  0.05888942  0.33767828    -0.59700
N1791       N  0.75704069  0.45620502  0.32193540    -0.04400
N1792       N  0.76759677  0.42984607  0.33458099    -0.56900
Mn1793     Mn  0.70091476  0.99556980  0.29881798     1.20200
Mn1794     Mn  0.78468905  0.49350798  0.29888647     1.10100
Cl1795     Cl  0.74405827  0.99501690  0.25718707    -0.84900
C1796       C  0.74121086  0.41429184  0.34274769     0.97400
C1797       C  0.74416889  0.07421317  0.34584322     0.97200
C1798       C  0.90406943  0.39996012  0.26901556    -0.15400
C1799       C  0.90231709  0.42257127  0.29086667    -0.30500
H1800       H  0.92605986  0.39649918  0.25656786     0.13700
H1801       H  0.88074410  0.42657983  0.30367429     0.14200
C1802       C  0.58121821  0.08822662  0.26617710    -0.15400
C1803       C  0.58281304  0.06713569  0.28937987    -0.30500
H1804       H  0.55941281  0.09074253  0.25314175     0.13700
H1805       H  0.60412682  0.06420330  0.30293425     0.14200
C1806       C  0.89683636  0.09078655  0.28427051    -0.15400
C1807       C  0.92674882  0.08539393  0.27608507    -0.30500
H1808       H  0.88591310  0.07557350  0.30161657     0.13700
H1809       H  0.93783975  0.09945608  0.25800900     0.14200
C1810       C  0.58969663  0.39986466  0.28170621    -0.15400
C1811       C  0.55923200  0.40458874  0.27507601    -0.30500
H1812       H  0.60117021  0.41521559  0.29859062     0.13700
H1813       H  0.54764634  0.39058675  0.25724798     0.14200
C1814       C  0.72909203  0.40555503  0.41108519    -0.15400
C1815       C  0.70741168  0.40394821  0.43376270    -0.30500
H1816       H  0.74173661  0.42751746  0.40754641     0.13700
H1817       H  0.69427280  0.38246420  0.43766635     0.14200
C1818       C  0.71717861  0.09195077  0.40922029    -0.15400
C1819       C  0.72545673  0.08599334  0.43899697    -0.30500
H1820       H  0.69948987  0.07723549  0.39814394     0.13700
H1821       H  0.74385589  0.09954586  0.45022029     0.14200
C1822       C  0.70866149  0.08440213  0.07803315    -0.15400
C1823       C  0.73209429  0.08184276  0.09876770    -0.30500
H1824       H  0.69564515  0.10618044  0.07560884     0.13700
H1825       H  0.74451846  0.05954364  0.10078184     0.14200
C1826       C  0.73325773  0.40420959  0.09573348    -0.15400
C1827       C  0.70657031  0.42095149  0.09432685    -0.30500
H1828       H  0.75009283  0.40539492  0.07662032     0.13700
H1829       H  0.68977057  0.41943858  0.11340897     0.14200
C1830       C  0.90074879  0.22961361  0.41765424    -0.15400
C1831       C  0.92020336  0.20478904  0.41605558    -0.30500
H1832       H  0.89981255  0.24348948  0.43909943     0.13700
H1833       H  0.92111325  0.19057319  0.39491205     0.14200
C1834       C  0.58346124  0.23079337  0.41436874    -0.15400
C1835       C  0.58378472  0.20513615  0.43287627    -0.30500
H1836       H  0.56292481  0.24596945  0.41417704     0.13700
H1837       H  0.60416958  0.18983025  0.43314838     0.14200
C1838       C  0.89585162  0.21837738  0.10117218    -0.15400
C1839       C  0.92551583  0.22702940  0.09524418    -0.30500
H1840       H  0.88489522  0.20069621  0.08632831     0.13700
H1841       H  0.93642865  0.24557281  0.10893582     0.14200
C1842       C  0.58311739  0.20336594  0.08182595    -0.15400
C1843       C  0.58201013  0.22943285  0.09951634    -0.30500
H1844       H  0.60379259  0.18843368  0.08198356     0.13700
H1845       H  0.56111403  0.24413038  0.09904255     0.14200
N1846       N  0.81172053  0.26424589  0.54147011    -0.05000
N1847       N  0.82491270  0.27667067  0.56660783    -0.57200
N1848       N  0.81182846  0.23114031  0.96974657    -0.04700
N1849       N  0.82704014  0.22087373  0.94468689    -0.59300
N1850       N  0.81115389  0.26213580  0.97010354    -0.04300
N1851       N  0.82584682  0.27354938  0.94522981    -0.57100
N1852       N  0.81368319  0.23332734  0.54226019    -0.04000
N1853       N  0.82877358  0.22408329  0.56784964    -0.59600
C1854       C  0.83559152  0.25147567  0.58272479     0.97100
C1855       C  0.83607732  0.24756593  0.92986428     0.96900
N1856       N  0.72906354  0.17720942  0.96920994    -0.05200
N1857       N  0.71865096  0.16228856  0.94392848    -0.57700
N1858       N  0.76348877  0.17953214  0.54330002    -0.03400
N1859       N  0.77505954  0.16639640  0.56892184    -0.59000
N1860       N  0.73267081  0.17760533  0.54310969    -0.05300
N1861       N  0.72264658  0.16275618  0.56840226    -0.58000
N1862       N  0.75993279  0.17858013  0.96893305    -0.03000
N1863       N  0.77106017  0.16505849  0.94336432    -0.59100
Mn1864     Mn  0.78678973  0.20334350  0.00581094     1.18400
C1865       C  0.74518646  0.15479445  0.92812313     0.99200
C1866       C  0.74929346  0.15604071  0.58419119     0.99900
N1867       N  0.75786968  0.31313778  0.97134273    -0.05300
N1868       N  0.76831365  0.32744463  0.94590894    -0.61600
N1869       N  0.72748674  0.31277657  0.54221324    -0.04100
N1870       N  0.71700121  0.32595745  0.56835211    -0.62300
N1871       N  0.75831741  0.31329693  0.54151978    -0.04800
N1872       N  0.76949100  0.32639511  0.56725246    -0.61900
N1873       N  0.72702034  0.31272197  0.97152600    -0.03700
N1874       N  0.71584424  0.32674945  0.94616220    -0.62500
Mn1875     Mn  0.78523376  0.28920595  0.50473200     1.10700
C1876       C  0.74187514  0.33628444  0.93077347     1.00400
C1877       C  0.74356821  0.33434054  0.58359873     1.00500
N1878       N  0.67890670  0.22779786  0.54383880    -0.04800
N1879       N  0.66529426  0.21678091  0.56945786    -0.60200
N1880       N  0.67618048  0.26016846  0.97063282    -0.04100
N1881       N  0.66207119  0.27151972  0.94541305    -0.56900
N1882       N  0.67648185  0.22915219  0.96993542    -0.05400
N1883       N  0.66256521  0.21880787  0.94415240    -0.59700
N1884       N  0.67805235  0.25880936  0.54361833    -0.04400
N1885       N  0.66403201  0.26954031  0.56910760    -0.56900
Mn1886     Mn  0.70179311  0.20166942  0.00623386     1.20200
Mn1887     Mn  0.70107696  0.28633292  0.50641648     1.10100
Cl1888     Cl  0.74487281  0.24540606  0.50607624    -0.84900
C1889       C  0.65623106  0.24310153  0.58489762     0.97400
C1890       C  0.65340011  0.24547177  0.92934753     0.97200
N1891       N  0.60872240  0.23732994  0.61847994    -0.02400
C1892       C  0.63963858  0.24311114  0.61511670     0.00200
C1893       C  0.65286577  0.25080288  0.64370320    -0.22700
C1894       C  0.62881203  0.24981763  0.66546111    -0.22900
C1895       C  0.60192588  0.24146017  0.64926058     0.00100
H1896       H  0.67703881  0.25721650  0.64811618     0.13900
H1897       H  0.63054847  0.25561211  0.69014740     0.13900
N1898       N  0.87956184  0.24074340  0.62108351    -0.02400
C1899       C  0.85182936  0.25429179  0.61317789     0.00200
C1900       C  0.84253174  0.27493764  0.63643750    -0.22700
C1901       C  0.86526961  0.27411406  0.65935847    -0.22900
C1902       C  0.88771017  0.25294988  0.64930429     0.00100
H1903       H  0.82230105  0.29014858  0.63603008     0.13900
H1904       H  0.86623312  0.28871007  0.68016872     0.13900
N1905       N  0.60690994  0.23968924  0.89366117    -0.02400
C1906       C  0.60132481  0.24426878  0.86272443     0.00200
C1907       C  0.62861792  0.25373644  0.84792690    -0.22700
C1908       C  0.65171651  0.25484187  0.87071872    -0.22900
C1909       C  0.63758133  0.24614714  0.89856175     0.00100
H1910       H  0.63122131  0.26014251  0.82347700     0.13900
H1911       H  0.67588345  0.26192464  0.86745885     0.13900
N1912       N  0.88104388  0.24361920  0.89132930    -0.02400
C1913       C  0.88449320  0.24917337  0.86032517     0.00200
C1914       C  0.85599368  0.25720978  0.84713347    -0.22700
C1915       C  0.83426749  0.25670606  0.87127520    -0.22900
C1916       C  0.85034001  0.24829495  0.89823107     0.00100
H1917       H  0.85155746  0.26324938  0.82285354     0.13900
H1918       H  0.80960596  0.26248849  0.86946901     0.13900
N1919       N  0.94624207  0.20699951  0.49922161    -0.35500
N1920       N  0.98870317  0.20117864  0.95770670    -0.56100
N1921       N  0.54158505  0.19993636  0.50969891    -0.35500
N1922       N  0.98868366  0.20743903  0.55329616    -0.56100
C1923       C  0.92659548  0.21463319  0.98690160     0.28100
C1924       C  0.92584591  0.20578859  0.52340731     0.28100
C1925       C  0.55939060  0.19895430  0.97625192     0.28000
C1926       C  0.55683510  0.19657926  0.53730568     0.28000
C1927       C  0.96123686  0.19971684  0.94201406     0.36700
C1928       C  0.51425966  0.19788000  0.93869813     0.36700
C1929       C  0.96266268  0.22018331  0.56617641     0.36700
C1930       C  0.51252844  0.21064566  0.57330256     0.36700
C1931       C  0.90158711  0.23230286  0.99803708    -0.20800
C1932       C  0.89680146  0.19566072  0.51277810    -0.20800
C1933       C  0.59095087  0.20253461  0.98319854    -0.20800
C1934       C  0.58786821  0.18858232  0.53145491    -0.20800
C1935       C  0.96675963  0.19316581  0.91058735    -0.21900
C1936       C  0.50167790  0.19375915  0.90896484    -0.21900
C1937       C  0.97035698  0.23679258  0.59316563    -0.21900
C1938       C  0.50189707  0.22642974  0.59972974    -0.21900
C1939       C  0.93168126  0.20777762  0.95487161    -0.17200
C1940       C  0.93204045  0.21667244  0.55399557    -0.17200
C1941       C  0.54436667  0.20366423  0.56738563    -0.17200
C1942       C  0.54663188  0.19970648  0.94542317    -0.17200
H1943       H  0.88314608  0.24337131  0.98449731     0.15700
H1944       H  0.87556277  0.19281906  0.52639802     0.15700
H1945       H  0.61009418  0.20504365  0.96699565     0.15700
H1946       H  0.60629028  0.18470314  0.54851158     0.15700
H1947       H  0.94962341  0.19086875  0.89198797     0.14000
H1948       H  0.51414506  0.18967477  0.88722608     0.14000
H1949       H  0.95502419  0.25042671  0.60809679     0.14000
H1950       H  0.51565914  0.23543707  0.61907948     0.14000
H1951       H  0.96867146  0.21634611  0.50003631     0.27200
H1952       H  0.51883549  0.20774024  0.50705538     0.27200
N1953       N  0.53004557  0.25801668  0.68668227    -0.05000
N1954       N  0.55553761  0.26832376  0.67237271    -0.57200
N1955       N  0.95850863  0.23151903  0.68708199    -0.04700
N1956       N  0.93269774  0.22235277  0.67235583    -0.59300
N1957       N  0.96005739  0.26248105  0.68784790    -0.04300
N1958       N  0.93533322  0.27500524  0.67411368    -0.57100
N1959       N  0.52941694  0.22701862  0.68671977    -0.04000
N1960       N  0.55447176  0.21562418  0.67232907    -0.59600
C1961       C  0.57026641  0.24169337  0.66312134     0.97100
C1962       C  0.91863764  0.24984033  0.66436082     0.96900
N1963       N  0.95541964  0.17836174  0.76978794    -0.05200
N1964       N  0.93016163  0.16343935  0.77993327    -0.57700
N1965       N  0.52869028  0.17566433  0.73965968    -0.03400
N1966       N  0.55400402  0.16128825  0.72888315    -0.59000
N1967       N  0.52894117  0.17608340  0.77058462    -0.05300
N1968       N  0.55441126  0.16194855  0.78137721    -0.58000
N1969       N  0.95590293  0.17882315  0.73889056    -0.03000
N1970       N  0.93096498  0.16436569  0.72740260    -0.59100
Mn1971     Mn  0.99355019  0.20292887  0.71281231     1.18400
C1972       C  0.91533694  0.15469599  0.75324418     0.99200
C1973       C  0.56951955  0.15241376  0.75514122     0.99900
N1974       N  0.96097524  0.31420080  0.73916770    -0.05300
N1975       N  0.93596087  0.32844342  0.72762060    -0.61600
N1976       N  0.53243257  0.31132704  0.76882871    -0.04100
N1977       N  0.55817474  0.32566738  0.77878921    -0.62300
N1978       N  0.53195242  0.31030165  0.73796079    -0.04800
N1979       N  0.55740744  0.32345992  0.72627846    -0.61900
N1980       N  0.96006779  0.31414317  0.77000505    -0.03700
N1981       N  0.93443292  0.32833702  0.78010640    -0.62500
Mn1982     Mn  0.99701683  0.28766697  0.71341983     1.10700
C1983       C  0.91997539  0.33760210  0.75343305     1.00400
C1984       C  0.57341361  0.33310086  0.75189576     1.00500
N1985       N  0.53023195  0.22868450  0.82279400    -0.04800
N1986       N  0.55460169  0.21766928  0.83866722    -0.60200
N1987       N  0.95643842  0.26193320  0.82123839    -0.04100
N1988       N  0.93103514  0.27371420  0.83460908    -0.56900
N1989       N  0.95558198  0.23091303  0.82169361    -0.05400
N1990       N  0.92969851  0.22099088  0.83564674    -0.59700
N1991       N  0.53109544  0.25968371  0.82182743    -0.04400
N1992       N  0.55607120  0.27034490  0.83677858    -0.56900
Mn1993     Mn  0.99193836  0.20265422  0.79765361     1.20200
Mn1994     Mn  0.99475624  0.28779665  0.79758734     1.10100
Cl1995     Cl  0.99434279  0.24521956  0.75537744    -0.84900
C1996       C  0.57026452  0.24399594  0.84750313     0.97400
C1997       C  0.91466559  0.24794511  0.84347876     0.97200
N1998       N  0.73448772  0.37820052  0.62181165    -0.02400
C1999       C  0.74732851  0.38577485  0.64997648     0.00200
C2000       C  0.76545347  0.36116135  0.66099591    -0.22700
C2001       C  0.76388391  0.33776304  0.63867898    -0.22900
C2002       C  0.74508871  0.34900022  0.61481873     0.00100
H2003       H  0.77927825  0.36074844  0.68231128     0.13900
H2004       H  0.77615637  0.31554746  0.63910506     0.13900
N2005       N  0.74170289  0.10931002  0.61851194    -0.02400
C2006       C  0.74994329  0.13968704  0.61447635     0.00200
C2007       C  0.75957745  0.15275813  0.64254338    -0.22700
C2008       C  0.75733739  0.12909075  0.66471234    -0.22900
C2009       C  0.74633565  0.10263424  0.64922274     0.00100
H2010       H  0.76781101  0.17657533  0.64636951     0.13900
H2011       H  0.76399644  0.13071615  0.68918054     0.13900
N2012       N  0.73456570  0.11082566  0.88958748    -0.02400
C2013       C  0.74656934  0.13950552  0.89696773     0.00200
C2014       C  0.76590588  0.15002027  0.87317833    -0.22700
C2015       C  0.76598168  0.12695286  0.85044858    -0.22900
C2016       C  0.74678245  0.10303205  0.86113482     0.00100
H2017       H  0.77983380  0.17134745  0.87314749     0.13900
H2018       H  0.77985205  0.12690535  0.82917144     0.13900
N2019       N  0.73611995  0.38018879  0.89168927    -0.02400
C2020       C  0.74392927  0.38378071  0.86121848     0.00200
C2021       C  0.75437781  0.35558617  0.84882947    -0.22700
C2022       C  0.75306003  0.33384880  0.87292674    -0.22900
C2023       C  0.74191529  0.34970510  0.89900900     0.00100
H2024       H  0.76296129  0.35151064  0.82527054     0.13900
H2025       H  0.76074183  0.30955458  0.87191405     0.13900
N2026       N  0.70603755  0.04357055  0.51164156    -0.35500
N2027       N  0.70197655  0.48790600  0.95753800    -0.56100
N2028       N  0.70192352  0.44510615  0.51132575    -0.35500
N2029       N  0.70242840  0.49988973  0.55263295    -0.56100
C2030       C  0.71458460  0.05620012  0.97377335     0.28100
C2031       C  0.69813776  0.05870042  0.53836629     0.28100
C2032       C  0.69809185  0.42418968  0.98559263     0.28000
C2033       C  0.71468751  0.43298749  0.53776447     0.28000
C2034       C  0.70105552  0.01258671  0.93766919     0.36700
C2035       C  0.69430981  0.46183293  0.94113628     0.36700
C2036       C  0.70797426  0.01442645  0.57504321     0.36700
C2037       C  0.70031171  0.47639185  0.57383155     0.36700
C2038       C  0.73107490  0.08341693  0.98126123    -0.20800
C2039       C  0.68963235  0.08950496  0.53143309    -0.20800
C2040       C  0.70467763  0.39470734  0.99766189    -0.20800
C2041       C  0.73149854  0.40592562  0.53035564    -0.20800
C2042       C  0.69218679  0.00077792  0.90867733    -0.21900
C2043       C  0.68904893  0.46935131  0.90990227    -0.21900
C2044       C  0.72317845  0.00300330  0.60139488    -0.21900
C2045       C  0.69111089  0.48812866  0.60275733    -0.21900
C2046       C  0.71131804  0.04357243  0.94320091    -0.17200
C2047       C  0.70281707  0.04661024  0.56891469    -0.17200
C2048       C  0.71099673  0.44554087  0.56833732    -0.17200
C2049       C  0.69630710  0.43095097  0.95316583    -0.17200
H2050       H  0.74472874  0.09819869  0.96579901     0.15700
H2051       H  0.68301176  0.10779183  0.54786798     0.15700
H2052       H  0.70854788  0.37312121  0.98494887     0.15700
H2053       H  0.74523163  0.39127861  0.54589475     0.15700
H2054       H  0.68994003  0.01360763  0.88683311     0.14000
H2055       H  0.68330202  0.45338956  0.89093052     0.14000
H2056       H  0.73298070  0.01638221  0.62063721     0.14000
H2057       H  0.68848811  0.47518549  0.62449079     0.14000
H2058       H  0.71599460  0.02132531  0.51003333     0.27200
H2059       H  0.68734134  0.46473572  0.50968945     0.27200
N2060       N  0.61154102  0.37715621  0.76195608    -0.02400
C2061       C  0.60431292  0.34850730  0.74991644     0.00200
C2062       C  0.62789956  0.33824043  0.73018360    -0.22700
C2063       C  0.65047368  0.36144353  0.73007413    -0.22900
C2064       C  0.63981872  0.38510228  0.74966632     0.00100
H2065       H  0.62791539  0.31698808  0.71611570     0.13900
H2066       H  0.67162753  0.36171851  0.71602999     0.13900
N2067       N  0.88035671  0.10777404  0.76013666    -0.02400
C2068       C  0.85000563  0.10122133  0.75355019     0.00200
C2069       C  0.83526788  0.12771726  0.74172309    -0.22700
C2070       C  0.85752764  0.15134504  0.74098020    -0.22900
C2071       C  0.88494974  0.13829014  0.75230136     0.00100
H2072       H  0.81134066  0.12934479  0.73337159     0.13900
H2073       H  0.85432971  0.17505760  0.73220355     0.13900
N2074       N  0.60838603  0.10812954  0.76067780    -0.02400
C2075       C  0.60128056  0.13866113  0.75492067     0.00200
C2076       C  0.62783014  0.15444834  0.74486990    -0.22700
C2077       C  0.65192784  0.13258055  0.74434359    -0.22900
C2078       C  0.63906669  0.10434443  0.75404988     0.00100
H2079       H  0.62928200  0.17885328  0.73764714     0.13900
H2080       H  0.67583267  0.13663662  0.73683006     0.13900
N2081       N  0.88072097  0.38142490  0.75815018    -0.02400
C2082       C  0.84995073  0.38440737  0.75161429     0.00200
C2083       C  0.83762090  0.35600057  0.74170019    -0.22700
C2084       C  0.86210728  0.33466056  0.74224829    -0.22900
C2085       C  0.88827157  0.35100149  0.75242928     0.00100
H2086       H  0.81375897  0.35144138  0.73431296     0.13900
H2087       H  0.86111537  0.31016273  0.73526718     0.13900
N2088       N  0.94771597  0.48948082  0.79879372    -0.35500
N2089       N  0.00105925  0.44643320  0.79229165    -0.56100
N2090       N  0.54107535  0.49889313  0.78958768    -0.35500
N2091       N  0.98901964  0.04519148  0.80412792    -0.56100
C2092       C  0.93298172  0.46147425  0.80153713     0.28100
C2093       C  0.92556404  0.01527012  0.80528174     0.28100
C2094       C  0.56179236  0.47517144  0.79353000     0.28000
C2095       C  0.55784418  0.02694052  0.79962128     0.28000
C2096       C  0.97724547  0.42676186  0.78500144     0.36700
C2097       C  0.52653935  0.43091532  0.78049297     0.36700
C2098       C  0.96175510  0.06141657  0.80333607     0.36700
C2099       C  0.51358839  0.06497215  0.79822986     0.36700
C2100       C  0.90239253  0.46646689  0.81155538    -0.20800
C2101       C  0.89699257  0.00192540  0.81332470    -0.20800
C2102       C  0.58983280  0.48698038  0.80502402    -0.20800
C2103       C  0.58839255  0.01922359  0.80784210    -0.20800
C2104       C  0.98844223  0.40073473  0.76884973    -0.21900
C2105       C  0.51936296  0.40272997  0.76562455    -0.21900
C2106       C  0.96787298  0.09346552  0.80318509    -0.21900
C2107       C  0.50130234  0.09503958  0.79605425    -0.21900
C2108       C  0.94543291  0.43191245  0.79243183    -0.17200
C2109       C  0.93130220  0.04792538  0.80243796    -0.17200
C2110       C  0.54584973  0.05789222  0.79834382    -0.17200
C2111       C  0.55686912  0.44391462  0.78369413    -0.17200
H2112       H  0.88444260  0.44889836  0.81559756     0.15700
H2113       H  0.87563960  0.01403142  0.81987685     0.15700
H2114       H  0.61114318  0.47395032  0.80978119     0.15700
H2115       H  0.60652626  0.03504666  0.81609413     0.14500
H2116       H  0.97510466  0.38121354  0.75947157     0.14000
H2117       H  0.53499874  0.38710406  0.75318480     0.14000
H2118       H  0.95108611  0.11243896  0.80408750     0.14000
H2119       H  0.51379676  0.11709820  0.79496384     0.14000
H2120       H  0.97000221  0.49304564  0.78959701     0.27200
H2121       H  0.51943828  0.49714391  0.77859476     0.27200
N2122       N  0.76089969  0.45819791  0.68782871    -0.05000
N2123       N  0.77209556  0.43245038  0.67458778    -0.57200
N2124       N  0.72828836  0.03093536  0.68706434    -0.04700
N2125       N  0.71817393  0.05649366  0.67244696    -0.59300
N2126       N  0.75913323  0.03023731  0.68731054    -0.04300
N2127       N  0.77065696  0.05524899  0.67298498    -0.57100
N2128       N  0.73007463  0.45804833  0.68715942    -0.04000
N2129       N  0.71960279  0.43237059  0.67297582    -0.59600
C2130       C  0.74615661  0.41675885  0.66526786     0.97100
C2131       C  0.74490705  0.07112689  0.66345426     0.96900
N2132       N  0.67638930  0.03184574  0.77036350    -0.05200
N2133       N  0.66272668  0.05772268  0.78097960    -0.57700
N2134       N  0.67846906  0.45747506  0.73871504    -0.03400
N2135       N  0.66533337  0.43205102  0.72677589    -0.59000
N2136       N  0.67710861  0.45693542  0.76958947    -0.05300
N2137       N  0.66252045  0.43112479  0.77923938    -0.58000
N2138       N  0.67709723  0.03200553  0.73945607    -0.03000
N2139       N  0.66428005  0.05810436  0.72845392    -0.59100
Mn2140     Mn  0.70103354  0.99474207  0.71246826     1.18400
C2141       C  0.65543986  0.07381984  0.75455960     0.99200
C2142       C  0.65531825  0.41598464  0.75216193     0.99900
N2143       N  0.81091716  0.02965373  0.73909952    -0.05300
N2144       N  0.82549523  0.05474077  0.72803686    -0.61600
N2145       N  0.81152317  0.45545166  0.77022254    -0.04100
N2146       N  0.82518038  0.42928786  0.78002372    -0.62300
N2147       N  0.81135211  0.45651519  0.73936526    -0.04800
N2148       N  0.82444010  0.43098427  0.72747252    -0.61900
N2149       N  0.81144485  0.02970356  0.76997156    -0.03700
N2150       N  0.82670233  0.05465929  0.78057128    -0.62500
Mn2151     Mn  0.78509535  0.99332486  0.71259786     1.10700
C2152       C  0.83560955  0.06979206  0.75411948     1.00400
C2153       C  0.83284790  0.41430664  0.75306457     1.00500
N2154       N  0.72860662  0.45560013  0.82236114    -0.04800
N2155       N  0.71767055  0.43027594  0.83674287    -0.60200
N2156       N  0.75908593  0.03102855  0.82162868    -0.04100
N2157       N  0.77054809  0.05639548  0.83536684    -0.56900
N2158       N  0.72820922  0.03131891  0.82266450    -0.05400
N2159       N  0.71809264  0.05678310  0.83758436    -0.59700
N2160       N  0.75947450  0.45493987  0.82170323    -0.04400
N2161       N  0.77016430  0.42909929  0.83525226    -0.56900
Mn2162     Mn  0.70081846  0.99484787  0.79751712     1.20200
Mn2163     Mn  0.78687093  0.49170480  0.79799755     1.10100
Cl2164     Cl  0.74313129  0.99427841  0.75486389    -0.84900
C2165       C  0.74386712  0.41406349  0.84453666     0.97400
C2166       C  0.74486394  0.07209079  0.84540414     0.97200
C2167       C  0.90110362  0.40729022  0.76567542    -0.15400
C2168       C  0.92359670  0.40527445  0.78746839    -0.30500
H2169       H  0.89735158  0.42960780  0.75370824     0.13700
H2170       H  0.92749582  0.38360254  0.80025174     0.14200
C2171       C  0.58740633  0.08292052  0.76818937    -0.15400
C2172       C  0.56820315  0.08407467  0.79300491    -0.30500
H2173       H  0.58839110  0.06169396  0.75390461     0.13700
H2174       H  0.56721425  0.10503526  0.80756850     0.14200
C2175       C  0.90478628  0.08608689  0.76851750    -0.15400
C2176       C  0.90412731  0.06871333  0.79488406    -0.30500
H2177       H  0.92560038  0.08559358  0.75379321     0.13700
H2178       H  0.88356348  0.06896476  0.80988335     0.14200
C2179       C  0.59046093  0.39637399  0.78012457    -0.15400
C2180       C  0.58446169  0.42627587  0.77191823    -0.30500
H2181       H  0.57550118  0.38502797  0.79738014     0.13700
H2182       H  0.59838993  0.43772551  0.75395796     0.14200
C2183       C  0.72791894  0.40555830  0.91241664    -0.15400
C2184       C  0.70246229  0.40465247  0.93087660    -0.30500
H2185       H  0.74220411  0.42677489  0.91180584     0.13700
H2186       H  0.68799490  0.38362302  0.93168041     0.14200
C2187       C  0.71630582  0.09161933  0.91057992    -0.15400
C2188       C  0.72381768  0.06142407  0.91601188    -0.30500
H2189       H  0.69930203  0.10306787  0.92576947     0.13700
H2190       H  0.74151345  0.04980016  0.90189224     0.14200
C2191       C  0.70871462  0.06906674  0.59488097    -0.15400
C2192       C  0.73355488  0.08827709  0.59342957    -0.30500
H2193       H  0.69457741  0.06776998  0.61599357     0.13700
H2194       H  0.74728759  0.08928641  0.57193963     0.14200
C2195       C  0.71642255  0.39757899  0.60076606    -0.15400
C2196       C  0.72365682  0.42785791  0.59555073    -0.30500
H2197       H  0.69948454  0.38617718  0.58544547     0.13700
H2198       H  0.74120703  0.43966406  0.60969673     0.14200
C2199       C  0.90648738  0.23695488  0.91231757    -0.15400
C2200       C  0.90509314  0.21358013  0.93327861    -0.30500
H2201       H  0.92824546  0.25002818  0.90951650     0.13700
H2202       H  0.88380780  0.19991960  0.93610328     0.14200
C2203       C  0.58444489  0.23326447  0.91782612    -0.15400
C2204       C  0.56807556  0.20628508  0.91864033    -0.30500
H2205       H  0.58287309  0.24966856  0.93737470     0.13700
H2206       H  0.56971667  0.18965814  0.89933165     0.14200
C2207       C  0.89961352  0.22154004  0.60186536    -0.15400
C2208       C  0.90523405  0.22941424  0.57193333    -0.30500
H2209       H  0.91433787  0.20393842  0.61308492     0.13700
H2210       H  0.89182531  0.24793917  0.56068686     0.14200
C2211       C  0.56644563  0.20814968  0.59387110    -0.15400
C2212       C  0.58758845  0.23140097  0.59295146    -0.30500
H2213       H  0.56367735  0.19394633  0.61484124     0.13700
H2214       H  0.59022810  0.24513946  0.57157151     0.14200
N2215       N  0.80982092  0.76160813  0.04167384    -0.05000
N2216       N  0.82302921  0.77276837  0.06740809    -0.57200
N2217       N  0.81144256  0.72793583  0.46983251    -0.04700
N2218       N  0.82629021  0.71745493  0.44463965    -0.59300
N2219       N  0.81142746  0.75890507  0.47023217    -0.04300
N2220       N  0.82622458  0.77017161  0.44545671    -0.57100
N2221       N  0.81109179  0.73063098  0.04139810    -0.04000
N2222       N  0.82565186  0.72009704  0.06678663    -0.59600
C2223       C  0.83298794  0.74672241  0.08268939     0.97100
C2224       C  0.83575719  0.74411629  0.42998589     0.96900
N2225       N  0.72742035  0.67611810  0.46869761    -0.05200
N2226       N  0.71675039  0.66199848  0.44313435    -0.57700
N2227       N  0.76010528  0.67704231  0.04076687    -0.03400
N2228       N  0.77146197  0.66199573  0.06543014    -0.59000
N2229       N  0.72923756  0.67617691  0.04097136    -0.05300
N2230       N  0.71904278  0.66048110  0.06575490    -0.58000
N2231       N  0.75830846  0.67685035  0.46862973    -0.03000
N2232       N  0.76923400  0.66364430  0.44281772    -0.59100
Mn2233     Mn  0.78539042  0.70105646  0.50582557     1.18400
C2234       C  0.74314963  0.65430466  0.42733911     0.99200
C2235       C  0.74564134  0.65124711  0.08044563     0.99900
N2236       N  0.75928108  0.81007801  0.46861800    -0.05300
N2237       N  0.77048546  0.82339006  0.44292792    -0.61600
N2238       N  0.72671392  0.81274463  0.04319811    -0.04100
N2239       N  0.71666087  0.82725573  0.06884148    -0.62300
N2240       N  0.75756190  0.81253475  0.04245827    -0.04800
N2241       N  0.76915863  0.82645022  0.06754037    -0.61900
N2242       N  0.72841992  0.81085820  0.46853630    -0.03700
N2243       N  0.71797349  0.82503522  0.44298884    -0.62500
Mn2244     Mn  0.78402626  0.78837363  0.00550167     1.10700
C2245       C  0.74445586  0.83258868  0.42730314     1.00400
C2246       C  0.74353029  0.83567635  0.08364380     1.00500
N2247       N  0.67630046  0.72792717  0.04268777    -0.04800
N2248       N  0.66235585  0.71658229  0.06802964    -0.60200
N2249       N  0.67644009  0.75916546  0.46811102    -0.04100
N2250       N  0.66268669  0.77001022  0.44250623    -0.56900
N2251       N  0.67574640  0.72816793  0.46847075    -0.05400
N2252       N  0.66123552  0.71728211  0.44329121    -0.59700
N2253       N  0.67585245  0.75897061  0.04310792    -0.04400
N2254       N  0.66169875  0.76929456  0.06871184    -0.56900
Mn2255     Mn  0.70040780  0.70113349  0.50499033     1.20200
Mn2256     Mn  0.69979413  0.78716065  0.00670134     1.10100
Cl2257     Cl  0.74282466  0.74522220  0.00562371    -0.84900
C2258       C  0.65309113  0.74265764  0.08380164     0.97400
C2259       C  0.65315491  0.74364253  0.42748387     0.97200
N2260       N  0.60774495  0.73804305  0.12118520    -0.02400
C2261       C  0.63858950  0.74248080  0.11522170     0.00200
C2262       C  0.65383965  0.75142327  0.14248497    -0.22700
C2263       C  0.63132254  0.75254496  0.16587939    -0.22900
C2264       C  0.60322256  0.74428481  0.15193663     0.00100
H2265       H  0.67836151  0.75757780  0.14487303     0.13900
H2266       H  0.63493482  0.75940311  0.19008695     0.13900
N2267       N  0.87675337  0.73585239  0.12124712    -0.02400
C2268       C  0.84821001  0.74785928  0.11377474     0.00200
C2269       C  0.83666480  0.76523969  0.13861632    -0.22700
C2270       C  0.85904426  0.76427431  0.16194807    -0.22900
C2271       C  0.88342396  0.74611815  0.15061851     0.00100
H2272       H  0.81489055  0.77817599  0.13924749     0.13900
H2273       H  0.85830433  0.77677157  0.18409418     0.13900
N2274       N  0.60709397  0.73514758  0.39221309    -0.02400
C2275       C  0.60065546  0.74142174  0.36177722     0.00200
C2276       C  0.62689933  0.75362383  0.34707129    -0.22700
C2277       C  0.65027306  0.75498917  0.36946507    -0.22900
C2278       C  0.63727183  0.74365576  0.39690196     0.00100
H2279       H  0.62839506  0.76214641  0.32317193     0.13900
H2280       H  0.67367454  0.76438301  0.36639690     0.13900
N2281       N  0.88100969  0.74228446  0.39223352    -0.02400
C2282       C  0.88458922  0.74892265  0.36149527     0.00200
C2283       C  0.85599493  0.75593767  0.34796436    -0.22700
C2284       C  0.83396690  0.75365929  0.37167324    -0.22900
C2285       C  0.85004852  0.74518688  0.39860136     0.00100
H2286       H  0.85167018  0.76233787  0.32375531     0.13900
H2287       H  0.80911822  0.75850265  0.36967795     0.13900
N2288       N  0.94545603  0.70828755  0.99854270    -0.35500
N2289       N  0.98898941  0.69991411  0.45904432    -0.56100
N2290       N  0.54263984  0.69552634  0.00226852    -0.35500
N2291       N  0.98703208  0.70429068  0.05287572    -0.56100
C2292       C  0.92718441  0.71419800  0.48840957     0.28100
C2293       C  0.92470234  0.70718175  0.02243707     0.28100
C2294       C  0.55840161  0.69346113  0.47281598     0.28000
C2295       C  0.56408173  0.69794854  0.02560173     0.28000
C2296       C  0.96153534  0.69943993  0.44326248     0.36700
C2297       C  0.51294856  0.69043879  0.43549990     0.36700
C2298       C  0.96140806  0.71719220  0.06645568     0.36700
C2299       C  0.52690653  0.70055027  0.07079203     0.36700
C2300       C  0.90226505  0.73185785  0.49972117    -0.20800
C2301       C  0.89554429  0.69803821  0.01130515    -0.20800
C2302       C  0.59024708  0.69163344  0.47934646    -0.20800
C2303       C  0.59394784  0.69822549  0.01280188    -0.20800
C2304       C  0.96699995  0.69371098  0.41166654    -0.21900
C2305       C  0.50017267  0.68644826  0.40581283    -0.21900
C2306       C  0.96931579  0.73055647  0.09509018    -0.21900
C2307       C  0.52004658  0.69677883  0.10238199    -0.21900
C2308       C  0.93206469  0.70749947  0.45630161    -0.17200
C2309       C  0.93090241  0.71657430  0.05349160    -0.17200
C2310       C  0.55751337  0.70055231  0.05804415    -0.17200
C2311       C  0.54538329  0.69389264  0.44204020    -0.17200
H2312       H  0.88372184  0.74292012  0.48630754     0.15700
H2313       H  0.87409233  0.69542064  0.02462019     0.15700
H2314       H  0.60919971  0.68863172  0.46279002     0.15700
H2315       H  0.61613904  0.69955528  0.02499477     0.15700
H2316       H  0.94989604  0.69219259  0.39297367     0.14000
H2317       H  0.51246138  0.68421361  0.38372023     0.14000
H2318       H  0.95445483  0.74355705  0.11102642     0.14000
H2319       H  0.53618500  0.69108349  0.12112397     0.14000
H2320       H  0.96813530  0.71700501  0.99983295     0.27200
H2321       H  0.51864155  0.69444528  0.00494804     0.27200
N2322       N  0.53147652  0.75980526  0.19041648    -0.05000
N2323       N  0.55743739  0.77058520  0.17730661    -0.57200
N2324       N  0.95514584  0.72826907  0.18874260    -0.04700
N2325       N  0.92952483  0.71780091  0.17451930    -0.59300
N2326       N  0.95571251  0.75925172  0.18863752    -0.04300
N2327       N  0.93044175  0.77054077  0.17475395    -0.57100
N2328       N  0.53066113  0.72884941  0.18924138    -0.04000
N2329       N  0.55606405  0.71791564  0.17509890    -0.59600
C2330       C  0.57242127  0.74423086  0.16772433     0.97100
C2331       C  0.91446949  0.74454119  0.16585490     0.96900
N2332       N  0.95513289  0.67809225  0.27332114    -0.05200
N2333       N  0.92952022  0.66411312  0.28415641    -0.57700
N2334       N  0.52877837  0.67661643  0.24057790    -0.03400
N2335       N  0.55486189  0.66371414  0.22989266    -0.59000
N2336       N  0.52831609  0.67597309  0.27148439    -0.05300
N2337       N  0.55400726  0.66254452  0.28244094    -0.58000
N2338       N  0.95505015  0.67815252  0.24242177    -0.03000
N2339       N  0.92935550  0.66466374  0.23163095    -0.59100
Mn2340     Mn  0.99164344  0.70178877  0.21458987     1.18400
C2341       C  0.91376696  0.65587514  0.25777032     0.99200
C2342       C  0.57015966  0.65502529  0.25625925     0.99900
N2343       N  0.95689715  0.81201675  0.23909977    -0.05300
N2344       N  0.93086504  0.82484416  0.22815883    -0.61600
N2345       N  0.53119508  0.81118088  0.27361246    -0.04100
N2346       N  0.55669149  0.82552224  0.28436911    -0.62300
N2347       N  0.53148656  0.81061430  0.24274709    -0.04800
N2348       N  0.55712144  0.82406431  0.23185070    -0.61900
N2349       N  0.95753411  0.81356671  0.26992842    -0.03700
N2350       N  0.93214398  0.82774107  0.28063199    -0.62500
Mn2351     Mn  0.99290535  0.78599282  0.21269582     1.10700
C2352       C  0.91584912  0.83456483  0.25433388     1.00400
C2353       C  0.57252007  0.83345269  0.25789951     1.00500
N2354       N  0.52840539  0.72679264  0.32441794    -0.04800
N2355       N  0.55346725  0.71540174  0.33876176    -0.60200
N2356       N  0.95617697  0.76291032  0.32250230    -0.04100
N2357       N  0.93053451  0.77443854  0.33564139    -0.56900
N2358       N  0.95592264  0.73189210  0.32359835    -0.05400
N2359       N  0.93032635  0.72170524  0.33773966    -0.59700
N2360       N  0.52904086  0.75781063  0.32442878    -0.04400
N2361       N  0.55458104  0.76813523  0.33856265    -0.56900
Mn2362     Mn  0.99201054  0.70368371  0.29966181     1.20200
Mn2363     Mn  0.99344971  0.78878607  0.29726139     1.10100
Cl2364     Cl  0.99260814  0.74507134  0.25608174    -0.84900
C2365       C  0.56927974  0.74150330  0.34772349     0.97400
C2366       C  0.91480190  0.74844654  0.34502945     0.97200
N2367       N  0.73423580  0.87949595  0.12219664    -0.02400
C2368       C  0.74780804  0.88729637  0.14999835     0.00200
C2369       C  0.76735617  0.86343843  0.16010184    -0.22700
C2370       C  0.76609086  0.84029490  0.13760821    -0.22900
C2371       C  0.74577268  0.85075452  0.11464501     0.00100
H2372       H  0.78210360  0.86353504  0.18080412     0.13900
H2373       H  0.77984618  0.81896452  0.13713318     0.13900
N2374       N  0.74103999  0.60741040  0.12037674    -0.02400
C2375       C  0.74649134  0.63785353  0.11233322     0.00200
C2376       C  0.75653739  0.65462087  0.13832722    -0.22700
C2377       C  0.75728014  0.63370343  0.16315088    -0.22900
C2378       C  0.74767714  0.60501444  0.15126480     0.00100
H2379       H  0.76341674  0.67916633  0.13896143     0.13900
H2380       H  0.76459592  0.63873155  0.18696291     0.13900
N2381       N  0.73209519  0.61043960  0.38930461    -0.02400
C2382       C  0.74410934  0.63917772  0.39627881     0.00200
C2383       C  0.76315207  0.64969170  0.37226487    -0.22700
C2384       C  0.76315079  0.62646416  0.34975285    -0.22900
C2385       C  0.74418545  0.60257001  0.36088214     0.00100
H2386       H  0.77703165  0.67104898  0.37200643     0.13900
H2387       H  0.77693028  0.62622430  0.32841552     0.13900
N2388       N  0.73755913  0.88007627  0.39364613    -0.02400
C2389       C  0.74268421  0.88716040  0.36305550     0.00200
C2390       C  0.75301260  0.86066672  0.34719797    -0.22700
C2391       C  0.75438496  0.83654690  0.36892928    -0.22900
C2392       C  0.74486356  0.84934101  0.39715688     0.00100
H2393       H  0.76001367  0.85934518  0.32281167     0.13900
H2394       H  0.76227514  0.81266562  0.36477835     0.13900
N2395       N  0.70457705  0.54157442  0.00076032    -0.35500
N2396       N  0.70345571  0.00190216  0.45721026    -0.56100
N2397       N  0.69906706  0.94608970  0.01198818    -0.35500
N2398       N  0.70252144  0.00094873  0.05294904    -0.56100
C2399       C  0.71187133  0.55542892  0.47351732     0.28100
C2400       C  0.71449550  0.55948767  0.02508961     0.28100
C2401       C  0.69772768  0.93402542  0.47385207     0.28000
C2402       C  0.71185068  0.93370796  0.03834196     0.28000
C2403       C  0.69944370  0.51146450  0.43747796     0.36700
C2404       C  0.71068911  0.97786026  0.43770459     0.36700
C2405       C  0.69837008  0.52524447  0.06912392     0.36700
C2406       C  0.69925843  0.97763678  0.07421794     0.36700
C2407       C  0.72827999  0.58268893  0.48102535    -0.20800
C2408       C  0.73401511  0.58321926  0.01429679    -0.20800
C2409       C  0.68763658  0.90362662  0.48041536    -0.20800
C2410       C  0.72824072  0.90646206  0.03076963    -0.20800
C2411       C  0.69041861  0.49930879  0.40866004    -0.21900
C2412       C  0.72666229  0.98887310  0.41164903    -0.21900
C2413       C  0.69071762  0.51922979  0.10016101    -0.21900
C2414       C  0.69030934  0.98981966  0.10302328    -0.21900
C2415       C  0.70855238  0.54285865  0.44290055    -0.17200
C2416       C  0.70649863  0.55504897  0.05682916    -0.17200
C2417       C  0.70883508  0.94641032  0.06893178    -0.17200
C2418       C  0.70397458  0.94592199  0.44350414    -0.17200
H2419       H  0.74188827  0.59753632  0.46558988     0.15700
H2420       H  0.74596885  0.60100126  0.02804775     0.15700
H2421       H  0.68096811  0.88557415  0.46373951     0.15700
H2422       H  0.74204257  0.89171034  0.04613284     0.15700
H2423       H  0.68673837  0.51214402  0.38701481     0.14000
H2424       H  0.73614739  0.97526357  0.39239980     0.14000
H2425       H  0.68749377  0.53617445  0.11887402     0.14000
H2426       H  0.68696910  0.97704895  0.12476104     0.14000
H2427       H  0.68862022  0.52304484  0.00190476     0.27200
H2428       H  0.68489094  0.96603474  0.01041839     0.27200
N2429       N  0.61077812  0.87830907  0.26693598    -0.02400
C2430       C  0.60350342  0.84893530  0.25643505     0.00200
C2431       C  0.62806263  0.83698122  0.23890580    -0.22700
C2432       C  0.65106629  0.85979255  0.23840582    -0.22900
C2433       C  0.63982440  0.88492104  0.25569056     0.00100
H2434       H  0.62853503  0.81473180  0.22646840     0.13900
H2435       H  0.67291120  0.85878367  0.22550499     0.13900
N2436       N  0.87534957  0.61185140  0.26896648    -0.02400
C2437       C  0.84674832  0.60424725  0.25736037     0.00200
C2438       C  0.83590240  0.62797955  0.23800290    -0.22700
C2439       C  0.85874612  0.65091672  0.23755881    -0.22900
C2440       C  0.88281271  0.64039112  0.25659878     0.00100
H2441       H  0.81467400  0.62768100  0.22405372     0.13900
H2442       H  0.85864330  0.67207075  0.22336936     0.13900
N2443       N  0.60565489  0.60888065  0.26005038    -0.02400
C2444       C  0.60104582  0.64002222  0.25652949     0.00200
C2445       C  0.62936937  0.65544598  0.25329939    -0.22700
C2446       C  0.65231082  0.63241351  0.25452560    -0.22900
C2447       C  0.63691380  0.60403718  0.25864662     0.00100
H2448       H  0.63294333  0.68048540  0.25011002     0.13900
H2449       H  0.67733218  0.63592366  0.25208903     0.13900
N2450       N  0.88075112  0.88075279  0.26110228    -0.02400
C2451       C  0.84971796  0.88640700  0.25778584     0.00200
C2452       C  0.83438576  0.85901289  0.24908668    -0.22700
C2453       C  0.85702340  0.83576712  0.24704423    -0.22900
C2454       C  0.88516647  0.85006402  0.25439923     0.00100
H2455       H  0.80968114  0.85643765  0.24381183     0.13900
H2456       H  0.85343362  0.81141619  0.24039078     0.13900
N2457       N  0.94510134  0.00099573  0.29762093    -0.35500
N2458       N  0.98818579  0.94815655  0.29593805    -0.56100
N2459       N  0.54228165  0.98937382  0.29532065    -0.35500
N2460       N  0.99740887  0.54235130  0.29489396    -0.56100
C2461       C  0.92591224  0.97690294  0.28971494     0.28100
C2462       C  0.93053795  0.52725490  0.28556572     0.28100
C2463       C  0.55448466  0.96292050  0.28251356     0.28000
C2464       C  0.55899561  0.51295110  0.28629457     0.28000
C2465       C  0.96132071  0.93253527  0.30224100     0.36700
C2466       C  0.51153184  0.92671318  0.29686557     0.36700
C2467       C  0.97415755  0.56362635  0.29815283     0.36700
C2468       C  0.52359183  0.55734780  0.29785162     0.36700
C2469       C  0.90037535  0.98816941  0.27303823    -0.20800
C2470       C  0.90328037  0.51999395  0.26922415    -0.20800
C2471       C  0.58109908  0.97047651  0.26528664    -0.20800
C2472       C  0.58383018  0.50167353  0.26867427    -0.20800
C2473       C  0.96770721  0.90127951  0.30925584    -0.21900
C2474       C  0.49985867  0.89782727  0.30645316    -0.21900
C2475       C  0.98629014  0.59283221  0.30624028    -0.21900
C2476       C  0.51712401  0.58888533  0.30316319    -0.21900
C2477       C  0.93111302  0.94491384  0.29660297    -0.17200
C2478       C  0.94291083  0.55795983  0.28937323    -0.17200
C2479       C  0.55377811  0.54492161  0.29265964    -0.17200
C2480       C  0.54243443  0.93219553  0.28673061    -0.17200
H2481       H  0.88123902  0.97471652  0.26307360     0.15700
H2482       H  0.88832961  0.53580140  0.25614530     0.15700
H2483       H  0.59574685  0.95485925  0.25159881     0.15700
H2484       H  0.60222691  0.51516045  0.25744592     0.14500
H2485       H  0.95100146  0.88278177  0.31433751     0.14000
H2486       H  0.51277686  0.87610081  0.30962374     0.14000
H2487       H  0.97353952  0.61466499  0.30940885     0.14000
H2488       H  0.53374648  0.60775051  0.30685651     0.14000
H2489       H  0.96531841  0.99939562  0.31125176     0.27200
H2490       H  0.52301975  0.99087398  0.31029149     0.27200
N2491       N  0.76072478  0.95823045  0.19044047    -0.05000
N2492       N  0.77210202  0.93309830  0.17630343    -0.57200
N2493       N  0.72931335  0.53429751  0.19046044    -0.04700
N2494       N  0.71948571  0.56032925  0.17657685    -0.59300
N2495       N  0.76014992  0.53341079  0.19099266    -0.04300
N2496       N  0.77198394  0.55894425  0.17782649    -0.57100
N2497       N  0.72991112  0.95825310  0.18911475    -0.04000
N2498       N  0.71962177  0.93325108  0.17367439    -0.59600
C2499       C  0.74629429  0.91793105  0.16582607     0.97100
C2500       C  0.74637099  0.57544285  0.16905267     0.96900
N2501       N  0.67535757  0.53192153  0.27246171    -0.05200
N2502       N  0.66040198  0.55663890  0.28395318    -0.57700
N2503       N  0.67783584  0.95754997  0.24092290    -0.03400
N2504       N  0.66491184  0.93138401  0.23015355    -0.59000
N2505       N  0.67655272  0.95818053  0.27182745    -0.05300
N2506       N  0.66231181  0.93263837  0.28259488    -0.58000
N2507       N  0.67641535  0.53330252  0.24161604    -0.03000
N2508       N  0.66226386  0.55902499  0.23146804    -0.59100
Mn2509     Mn  0.70136384  0.49737058  0.21373980     1.18400
C2510       C  0.65219803  0.57309683  0.25807537     0.99200
C2511       C  0.65508014  0.91624008  0.25630759     0.99900
N2512       N  0.81070956  0.53103821  0.24264100    -0.05300
N2513       N  0.82386377  0.55704284  0.23204497    -0.61600
N2514       N  0.81127137  0.95823472  0.27390860    -0.04100
N2515       N  0.82567631  0.93285508  0.28472815    -0.62300
N2516       N  0.81145746  0.95826982  0.24303108    -0.04800
N2517       N  0.82585925  0.93300074  0.23216778    -0.61900
N2518       N  0.81072491  0.53074880  0.27350979    -0.03700
N2519       N  0.82436572  0.55654093  0.28457014    -0.62500
Mn2520     Mn  0.78570773  0.49534859  0.21490608     1.10700
C2521       C  0.83248825  0.57259284  0.25830394     1.00400
C2522       C  0.83491319  0.91762958  0.25837927     1.00500
N2523       N  0.72744527  0.95933209  0.32489188    -0.04800
N2524       N  0.71640878  0.93416423  0.33946430    -0.60200
N2525       N  0.75753145  0.52978434  0.32387651    -0.04100
N2526       N  0.76864221  0.55563766  0.33690415    -0.56900
N2527       N  0.72665667  0.52993064  0.32444098    -0.05400
N2528       N  0.71615102  0.55580977  0.33825445    -0.59700
N2529       N  0.75832114  0.95918062  0.32516669    -0.04400
N2530       N  0.76886881  0.93396982  0.33995349    -0.56900
Mn2531     Mn  0.69971460  0.49429545  0.29829507     1.20200
Mn2532     Mn  0.78582430  0.99528193  0.30011277     1.10100
Cl2533     Cl  0.74286331  0.49508619  0.25645089    -0.84900
C2534       C  0.74251629  0.91890885  0.34919537     0.97400
C2535       C  0.74270887  0.57145781  0.34591023     0.97200
C2536       C  0.90557537  0.90274497  0.26718722    -0.15400
C2537       C  0.90469934  0.92283511  0.29138968    -0.30500
H2538       H  0.92671972  0.90126195  0.25298694     0.13700
H2539       H  0.88402661  0.92451933  0.30611398     0.14200
C2540       C  0.58119842  0.58601320  0.26340168    -0.15400
C2541       C  0.58041100  0.56672719  0.28818115    -0.30500
H2542       H  0.56128208  0.58692484  0.24746584     0.13700
H2543       H  0.59978345  0.56611246  0.30470565     0.14200
C2544       C  0.89499503  0.59069551  0.28653000    -0.15400
C2545       C  0.92468180  0.58526914  0.27781768    -0.30500
H2546       H  0.88417064  0.57528975  0.30377409     0.13700
H2547       H  0.93551641  0.59940841  0.25964112     0.14200
C2548       C  0.59113658  0.90052813  0.28328079    -0.15400
C2549       C  0.56087926  0.90470341  0.27562299    -0.30500
H2550       H  0.60216948  0.91718639  0.29920210     0.13700
H2551       H  0.54948710  0.88910562  0.25903696     0.14200
C2552       C  0.73020982  0.90088511  0.41922281    -0.15400
C2553       C  0.70837309  0.92346478  0.41720153    -0.30500
H2554       H  0.74244891  0.89742226  0.44136007     0.13700
H2555       H  0.69566708  0.92730473  0.39551985     0.14200
C2556       C  0.71392943  0.59132751  0.41058616    -0.15400
C2557       C  0.72079541  0.56086221  0.41563025    -0.30500
H2558       H  0.69733866  0.60295217  0.42609151     0.13700
H2559       H  0.73806097  0.54899430  0.40122466     0.14200
C2560       C  0.71149849  0.58213828  0.07832011    -0.15400
C2561       C  0.73358479  0.58095647  0.10060101    -0.30500
H2562       H  0.69895189  0.60385532  0.07380046     0.13700
H2563       H  0.74570319  0.55881287  0.10483884     0.14200
C2564       C  0.71508012  0.89852578  0.10175101    -0.15400
C2565       C  0.72186194  0.92887040  0.09615420    -0.30500
H2566       H  0.69798634  0.88680351  0.08685686     0.13700
H2567       H  0.73956403  0.94085697  0.10997398     0.14200
C2568       C  0.90642230  0.73626413  0.41353109    -0.15400
C2569       C  0.90527659  0.71315778  0.43484919    -0.30500
H2570       H  0.92802539  0.74958006  0.41067541     0.13700
H2571       H  0.88419987  0.69920770  0.43777077     0.14200
C2572       C  0.58543511  0.72681146  0.41665756    -0.15400
C2573       C  0.56682968  0.70122942  0.41527588    -0.30500
H2574       H  0.58554854  0.74114209  0.43781201     0.13700
H2575       H  0.56660563  0.68665303  0.39434812     0.14200
C2576       C  0.89820309  0.71905541  0.10134571    -0.15400
C2577       C  0.90418246  0.72883105  0.07204531    -0.30500
H2578       H  0.91286436  0.70089012  0.11172933     0.13700
H2579       H  0.89040752  0.74758671  0.06161742     0.14200
C2580       C  0.58415205  0.70679687  0.07971326    -0.15400
C2581       C  0.58324254  0.73172444  0.09907548    -0.30500
H2582       H  0.60471563  0.69174497  0.07911126     0.13700
H2583       H  0.56242776  0.74650819  0.09982347     0.14200
N2584       N  0.80980555  0.75872156  0.54315635    -0.05000
N2585       N  0.82324183  0.76992960  0.56874946    -0.57200
N2586       N  0.81046273  0.73167905  0.96817996    -0.04700
N2587       N  0.82514839  0.72151686  0.94277545    -0.59300
N2588       N  0.80896638  0.76263490  0.96815944    -0.04300
N2589       N  0.82222267  0.77418025  0.94258210    -0.57100
N2590       N  0.81049088  0.72770928  0.54317255    -0.04000
N2591       N  0.82482174  0.71722082  0.56876887    -0.59600
C2592       C  0.83272694  0.74392126  0.58439602     0.97100
C2593       C  0.83229071  0.74828243  0.92709144     0.96900
N2594       N  0.72870594  0.67742585  0.96803393    -0.05200
N2595       N  0.71850826  0.66233652  0.94275722    -0.57700
N2596       N  0.75780036  0.67580553  0.54165383    -0.03400
N2597       N  0.76838707  0.66117272  0.56685074    -0.59000
N2598       N  0.72692378  0.67567952  0.54135618    -0.05300
N2599       N  0.71591228  0.66085624  0.56630504    -0.58000
N2600       N  0.75956046  0.67887482  0.96789214    -0.03000
N2601       N  0.77091934  0.66530697  0.94246647    -0.59100
Mn2602     Mn  0.78620414  0.70371841  0.00462354     1.18400
C2603       C  0.74520060  0.65491537  0.92712455     0.99200
C2604       C  0.74206735  0.65154094  0.58166635     0.99900
N2605       N  0.75647846  0.81366145  0.96991171    -0.05300
N2606       N  0.76695877  0.82832186  0.94471043    -0.61600
N2607       N  0.72739934  0.81187185  0.54139938    -0.04100
N2608       N  0.71673287  0.82692239  0.56647051    -0.62300
N2609       N  0.75823237  0.81087891  0.54175746    -0.04800
N2610       N  0.76919633  0.82480402  0.56713628    -0.61900
N2611       N  0.72562914  0.81346657  0.97023925    -0.03700
N2612       N  0.71447392  0.82805147  0.94517879    -0.62500
Mn2613     Mn  0.78545152  0.78547886  0.50597565     1.10700
C2614       C  0.74056929  0.83757018  0.92979931     1.00400
C2615       C  0.74319719  0.83489087  0.58216233     1.00500
N2616       N  0.67530990  0.72835071  0.54117655    -0.04800
N2617       N  0.66075980  0.71763136  0.56637824    -0.60200
N2618       N  0.67516391  0.76001753  0.96994218    -0.04100
N2619       N  0.66071709  0.77097807  0.94474769    -0.56900
N2620       N  0.67564635  0.72898858  0.96951556    -0.05400
N2621       N  0.66138006  0.71825511  0.94411579    -0.59700
N2622       N  0.67571449  0.75937851  0.54121539    -0.04400
N2623       N  0.66162723  0.77037659  0.56655566    -0.56900
Mn2624     Mn  0.70147201  0.70170789  0.00531441     1.20200
Mn2625     Mn  0.70103215  0.78625522  0.50483969     1.10100
Cl2626     Cl  0.74307977  0.74345336  0.50550002    -0.84900
C2627       C  0.65212098  0.74410403  0.58173396     0.97400
C2628       C  0.65199118  0.74467449  0.92911667     0.97200
N2629       N  0.60666502  0.73934937  0.61860425    -0.02400
C2630       C  0.63740991  0.74441924  0.61287767     0.00200
C2631       C  0.65243865  0.75356609  0.64017009    -0.22700
C2632       C  0.62984282  0.75415491  0.66344436    -0.22900
C2633       C  0.60198999  0.74542000  0.64933441     0.00100
H2634       H  0.67687483  0.75999803  0.64269306     0.13900
H2635       H  0.63322191  0.76090926  0.68771154     0.13900
N2636       N  0.87670605  0.73471941  0.62303594    -0.02400
C2637       C  0.84762931  0.74543818  0.61576478     0.00200
C2638       C  0.83621905  0.76390855  0.63989950    -0.22700
C2639       C  0.85913550  0.76482678  0.66269649    -0.22900
C2640       C  0.88383925  0.74686104  0.65174113     0.00100
H2641       H  0.81425086  0.77657418  0.64022539     0.13900
H2642       H  0.85839206  0.77825400  0.68430033     0.13900
N2643       N  0.60572926  0.73716482  0.89365110    -0.02400
C2644       C  0.59970976  0.74260097  0.86299338     0.00200
C2645       C  0.62640408  0.75358811  0.84819009    -0.22700
C2646       C  0.64964688  0.75491679  0.87076524    -0.22900
C2647       C  0.63611447  0.74485336  0.89844388     0.00100
H2648       H  0.62839797  0.76108898  0.82399153     0.13900
H2649       H  0.67341025  0.76327850  0.86755980     0.13900
N2650       N  0.87917870  0.74085924  0.89258212    -0.02400
C2651       C  0.88647500  0.74743233  0.86234680     0.00200
C2652       C  0.86047998  0.75965063  0.84716513    -0.22700
C2653       C  0.83653931  0.76075878  0.86905692    -0.22900
C2654       C  0.84888036  0.74917426  0.89673650     0.00100
H2655       H  0.85939757  0.76805820  0.82320294     0.13900
H2656       H  0.81311775  0.76990346  0.86542241     0.13900
N2657       N  0.94562396  0.70497253  0.51258280    -0.35500
N2658       N  0.99756139  0.69698027  0.95594822    -0.56100
N2659       N  0.54241482  0.69574297  0.50012048    -0.35500
N2660       N  0.99923844  0.70314548  0.55497271    -0.56100
C2661       C  0.92987990  0.69989308  0.97223822     0.28100
C2662       C  0.93302007  0.71726259  0.53911760     0.28100
C2663       C  0.55837518  0.69571150  0.97474812     0.28000
C2664       C  0.56366307  0.69654938  0.52373952     0.28000
C2665       C  0.97435644  0.69923375  0.93441377     0.36700
C2666       C  0.51245350  0.69371709  0.93796278     0.36700
C2667       C  0.97588250  0.70378260  0.57632874     0.36700
C2668       C  0.52635725  0.69981457  0.56896458     0.36700
C2669       C  0.89888391  0.69313285  0.97959317    -0.20800
C2670       C  0.90614966  0.73413536  0.53157223    -0.20800
C2671       C  0.59033879  0.69624859  0.98089137    -0.20800
C2672       C  0.59360261  0.69402650  0.51130881    -0.20800
C2673       C  0.98692747  0.70018514  0.90449163    -0.21900
C2674       C  0.49940043  0.68841527  0.90861084    -0.21900
C2675       C  0.98745632  0.69698109  0.60595701    -0.21900
C2676       C  0.51964092  0.69684944  0.60068555    -0.21900
C2677       C  0.94203791  0.70097408  0.94138832    -0.17200
C2678       C  0.94502157  0.71368015  0.56996593    -0.17200
C2679       C  0.55693973  0.70016534  0.55610292    -0.17200
C2680       C  0.54496821  0.69608105  0.94415644    -0.17200
H2681       H  0.88045256  0.68603219  0.96360069     0.15700
H2682       H  0.89116811  0.74748977  0.54712910     0.15700
H2683       H  0.60923986  0.69507532  0.96412348     0.15700
H2684       H  0.61567191  0.69364832  0.52380528     0.15700
H2685       H  0.97463270  0.70136814  0.88238677     0.14000
H2686       H  0.51153248  0.68378408  0.88679319     0.14000
H2687       H  0.97461169  0.69624157  0.62784904     0.14000
H2688       H  0.53596214  0.69236560  0.61957944     0.14000
H2689       H  0.96508701  0.69031709  0.51103716     0.27200
H2690       H  0.51847255  0.69788767  0.50242964     0.27200
N2691       N  0.53076430  0.75971110  0.68869926    -0.05000
N2692       N  0.55606466  0.77090750  0.67475014    -0.57200
N2693       N  0.95524889  0.72908849  0.69053659    -0.04700
N2694       N  0.92985952  0.71870362  0.67585984    -0.59300
N2695       N  0.95547746  0.76008961  0.69124463    -0.04300
N2696       N  0.93014101  0.77142461  0.67745891    -0.57100
N2697       N  0.53068590  0.72871942  0.68797037    -0.04000
N2698       N  0.55589842  0.71817434  0.67325673    -0.59600
C2699       C  0.57132572  0.74478879  0.66506872     0.97100
C2700       C  0.91452526  0.74544225  0.66778234     0.96900
N2701       N  0.95673605  0.67753622  0.77397153    -0.05200
N2702       N  0.93182943  0.66293923  0.78537035    -0.57700
N2703       N  0.52996593  0.67595682  0.73970429    -0.03400
N2704       N  0.55533631  0.66168525  0.72891482    -0.59000
N2705       N  0.52962503  0.67536421  0.77062157    -0.05300
N2706       N  0.55478305  0.66059379  0.78138797    -0.58000
N2707       N  0.95600316  0.67752761  0.74307579    -0.03000
N2708       N  0.93052910  0.66312498  0.73282317    -0.59100
Mn2709     Mn  0.99210289  0.70187791  0.71512905     1.18400
C2710       C  0.91591061  0.65394970  0.75941026     0.99200
C2711       C  0.57031732  0.65172563  0.75509072     0.99900
N2712       N  0.95804919  0.81288548  0.74247906    -0.05300
N2713       N  0.93278553  0.82738350  0.73189577    -0.61600
N2714       N  0.53133388  0.81106126  0.77188583    -0.04100
N2715       N  0.55712532  0.82495455  0.78249836    -0.62300
N2716       N  0.53134478  0.81066191  0.74098920    -0.04800
N2717       N  0.55717650  0.82375809  0.72998815    -0.61900
N2718       N  0.95879381  0.81351743  0.77335208    -0.03700
N2719       N  0.93387636  0.82846361  0.78438940    -0.62500
Mn2720     Mn  0.99312883  0.78668552  0.71507299     1.10700
C2721       C  0.91821007  0.83742555  0.75819143     1.00400
C2722       C  0.57293965  0.83277600  0.75599231     1.00500
N2723       N  0.52865466  0.72709122  0.82370229    -0.04800
N2724       N  0.55323273  0.71602784  0.83911045    -0.60200
N2725       N  0.95933938  0.76128520  0.82540106    -0.04100
N2726       N  0.93406496  0.77258988  0.83941319    -0.56900
N2727       N  0.95870548  0.73026316  0.82544290    -0.05400
N2728       N  0.93306489  0.71992144  0.83954828    -0.59700
N2729       N  0.52907993  0.75811053  0.82348935    -0.04400
N2730       N  0.55397738  0.76876348  0.83850281    -0.56900
Mn2731     Mn  0.99415870  0.70247693  0.79980029     1.20200
Mn2732     Mn  0.99581178  0.78778217  0.79936203     1.10100
Cl2733     Cl  0.99375818  0.74471662  0.75736587    -0.84900
C2734       C  0.56853483  0.74233735  0.84842931     0.97400
C2735       C  0.91820885  0.74656108  0.84857988     0.97200
N2736       N  0.73170660  0.87788712  0.62170392    -0.02400
C2737       C  0.74349869  0.88467686  0.65046188     0.00200
C2738       C  0.76318533  0.86089107  0.66048575    -0.22700
C2739       C  0.76373086  0.83875380  0.63694178    -0.22900
C2740       C  0.74448412  0.84980148  0.61331806     0.00100
H2741       H  0.77722360  0.86065212  0.68167072     0.13900
H2742       H  0.77799938  0.81773753  0.63632744     0.13900
N2743       N  0.73704106  0.60699228  0.62022741    -0.02400
C2744       C  0.74229124  0.63767094  0.61323445     0.00200
C2745       C  0.75327311  0.65342580  0.63946135    -0.22700
C2746       C  0.75501463  0.63151536  0.66334341    -0.22900
C2747       C  0.74509694  0.60329489  0.65064944     0.00100
H2748       H  0.76058059  0.67782165  0.64069870     0.13900
H2749       H  0.76352553  0.63550569  0.68695491     0.13900
N2750       N  0.73602876  0.60952713  0.89011366    -0.02400
C2751       C  0.74695122  0.63884522  0.89639611     0.00200
C2752       C  0.76564162  0.64924319  0.87202935    -0.22700
C2753       C  0.76626889  0.62542166  0.85002497    -0.22900
C2754       C  0.74801916  0.60121855  0.86171508     0.00100
H2755       H  0.77871816  0.67108527  0.87109200     0.13900
H2756       H  0.77971983  0.62522283  0.82848034     0.13900
N2757       N  0.73526910  0.88218461  0.89142678    -0.02400
C2758       C  0.74319433  0.88622538  0.86104707     0.00200
C2759       C  0.75374153  0.85826731  0.84828454    -0.22700
C2760       C  0.75220284  0.83614989  0.87201625    -0.22900
C2761       C  0.74077082  0.85153761  0.89826114     0.00100
H2762       H  0.76258048  0.85460999  0.82475179     0.13900
H2763       H  0.76000550  0.81191342  0.87069438     0.13900
N2764       N  0.69938255  0.54294945  0.49994213    -0.35500
N2765       N  0.70261009  0.98920554  0.95908104    -0.56100
N2766       N  0.70499405  0.94890446  0.50091827    -0.35500
N2767       N  0.70033921  0.99053936  0.55546271    -0.56100
C2768       C  0.71800456  0.55350048  0.97455960     0.28100
C2769       C  0.70778298  0.56202184  0.52397957     0.28100
C2770       C  0.70726309  0.92699499  0.98794407     0.28000
C2771       C  0.70020743  0.92830018  0.52450931     0.28000
C2772       C  0.70201893  0.51189384  0.93686630     0.36700
C2773       C  0.69484000  0.96246264  0.94378803     0.36700
C2774       C  0.69490935  0.52665339  0.56800635     0.36700
C2775       C  0.71143704  0.96397621  0.56906460     0.36700
C2776       C  0.73654330  0.57923013  0.98245789    -0.20800
C2777       C  0.72524779  0.58710821  0.51276780    -0.20800
C2778       C  0.72487140  0.90194263  0.99905983    -0.20800
C2779       C  0.68956340  0.89989969  0.51247874    -0.20800
C2780       C  0.69406688  0.50116461  0.90716291    -0.21900
C2781       C  0.68769764  0.96901155  0.91267751    -0.21900
C2782       C  0.68727093  0.52003916  0.59895950    -0.21900
C2783       C  0.72585737  0.97115193  0.59736441    -0.21900
C2784       C  0.71352979  0.54214113  0.94365528    -0.17200
C2785       C  0.70066312  0.55701310  0.55586762    -0.17200
C2786       C  0.70899357  0.93345604  0.55591056    -0.17200
C2787       C  0.69991057  0.93203038  0.95612083    -0.17200
H2788       H  0.75084697  0.59349560  0.96705035     0.15700
H2789       H  0.73586337  0.60593474  0.52620717     0.15700
H2790       H  0.73540494  0.88311949  0.98555829     0.15700
H2791       H  0.68457441  0.87852587  0.52541057     0.15700
H2792       H  0.69298714  0.51467368  0.88565277     0.14000
H2793       H  0.68164377  0.95237728  0.89438355     0.14000
H2794       H  0.68136670  0.53668676  0.61728682     0.14000
H2795       H  0.73825171  0.95548970  0.61298545     0.14000
H2796       H  0.68524224  0.52297987  0.50149142     0.27200
H2797       H  0.71575962  0.97071401  0.50308761     0.27200
N2798       N  0.61095649  0.87735621  0.76459306    -0.02400
C2799       C  0.60427540  0.84777610  0.75470338     0.00200
C2800       C  0.62898433  0.83611345  0.73718171    -0.22700
C2801       C  0.65155082  0.85945201  0.73630631    -0.22900
C2802       C  0.63981826  0.88460638  0.75324478     0.00100
H2803       H  0.62979630  0.81378878  0.72491283     0.13900
H2804       H  0.67344064  0.85869937  0.72346378     0.13900
N2805       N  0.88103935  0.60702658  0.76592079    -0.02400
C2806       C  0.85044832  0.60095630  0.76029413     0.00200
C2807       C  0.83519132  0.62814070  0.75101264    -0.22700
C2808       C  0.85747323  0.65174752  0.75072584    -0.22900
C2809       C  0.88537462  0.63794190  0.75977834     0.00100
H2810       H  0.81091666  0.63026771  0.74386179     0.13900
H2811       H  0.85397576  0.67594147  0.74350869     0.13900
N2812       N  0.60893771  0.60670071  0.76021198    -0.02400
C2813       C  0.60197124  0.63742049  0.75474886     0.00200
C2814       C  0.62857306  0.65299202  0.74444289    -0.22700
C2815       C  0.65254255  0.63100161  0.74369424    -0.22900
C2816       C  0.63966836  0.60284848  0.75360334     0.00100
H2817       H  0.63012538  0.67737253  0.73715367     0.13900
H2818       H  0.67639679  0.63493539  0.73594722     0.13900
N2819       N  0.87921564  0.88193991  0.76131305    -0.02400
C2820       C  0.84838660  0.88479832  0.75489034     0.00200
C2821       C  0.83564994  0.85585420  0.74737841    -0.22700
C2822       C  0.85993784  0.83433870  0.74924602    -0.22900
C2823       C  0.88644540  0.85104024  0.75791741     0.00100
H2824       H  0.81165004  0.85102077  0.74063063     0.13900
H2825       H  0.85864329  0.80946081  0.74378079     0.13900
N2826       N  0.94614554  0.99220910  0.79789134    -0.35500
N2827       N  0.99919405  0.94850816  0.79253251    -0.56100
N2828       N  0.54259907  0.00090229  0.78979906    -0.35500
N2829       N  0.99027851  0.54289839  0.80481672    -0.56100
C2830       C  0.93120305  0.96433344  0.80123236     0.28100
C2831       C  0.92699372  0.51225427  0.80653129     0.28100
C2832       C  0.56308459  0.97674358  0.79146450     0.28000
C2833       C  0.55557255  0.52581224  0.79820283     0.28000
C2834       C  0.97517129  0.92928973  0.78485399     0.36700
C2835       C  0.52666231  0.93384215  0.77680037     0.36700
C2836       C  0.96282012  0.55879325  0.80536049     0.36700
C2837       C  0.51171044  0.56232818  0.78667487     0.36700
C2838       C  0.90067292  0.96973894  0.81117524    -0.20800
C2839       C  0.89848367  0.49855296  0.81427601    -0.20800
C2840       C  0.59174690  0.98741687  0.80256979    -0.20800
C2841       C  0.58580036  0.51902673  0.80830465    -0.20800
C2842       C  0.98597361  0.90353552  0.76801393    -0.21900
C2843       C  0.51915045  0.90623771  0.76103528    -0.21900
C2844       C  0.96857436  0.59091776  0.80620602    -0.21900
C2845       C  0.50051120  0.58880153  0.77135546    -0.21900
C2846       C  0.94355250  0.93451447  0.79276587    -0.17200
C2847       C  0.93248678  0.54501360  0.80433195    -0.17200
C2848       C  0.54353616  0.55640719  0.79302202    -0.17200
C2849       C  0.55716721  0.94607224  0.78054901    -0.17200
H2850       H  0.88261438  0.95236619  0.81554205     0.15700
H2851       H  0.87701536  0.51034457  0.82099970     0.15700
H2852       H  0.61294294  0.97380602  0.80599664     0.15700
H2853       H  0.60353287  0.53561500  0.81590902     0.14500
H2854       H  0.97234129  0.88436479  0.75829048     0.14000
H2855       H  0.53466830  0.89081574  0.74810949     0.14000
H2856       H  0.95161568  0.60968966  0.80810777     0.14000
H2857       H  0.51392246  0.60827696  0.76201062     0.14000
H2858       H  0.96833804  0.99542709  0.78867678     0.27200
H2859       H  0.52045786  0.00008314  0.77977233     0.27200
N2860       N  0.75777916  0.95707046  0.68802308    -0.05000
N2861       N  0.76853548  0.93108763  0.67496222    -0.57200
N2862       N  0.73016514  0.53115760  0.68844882    -0.04700
N2863       N  0.71920305  0.55650655  0.67423638    -0.59300
N2864       N  0.76097448  0.53186970  0.68966710    -0.04300
N2865       N  0.77168106  0.55797685  0.67661669    -0.57100
N2866       N  0.72695422  0.95753529  0.68726456    -0.04000
N2867       N  0.71605840  0.93190154  0.67325376    -0.59600
C2868       C  0.74238922  0.91575362  0.66570749     0.97100
C2869       C  0.74534101  0.57295388  0.66711116     0.96900
N2870       N  0.67781585  0.53066405  0.77054882    -0.05200
N2871       N  0.66356775  0.55634060  0.78096673    -0.57700
N2872       N  0.67622078  0.95810268  0.73954201    -0.03400
N2873       N  0.66369694  0.93191155  0.72844307    -0.59000
N2874       N  0.67563982  0.95805818  0.77045506    -0.05300
N2875       N  0.66224055  0.93192883  0.78093700    -0.58000
N2876       N  0.67877233  0.53088282  0.73964442    -0.03000
N2877       N  0.66563932  0.55674145  0.72846882    -0.59100
Mn2878     Mn  0.70342512  0.49433020  0.71267260     1.18400
C2879       C  0.65622389  0.57232033  0.75442066     0.99200
C2880       C  0.65493929  0.91592133  0.75440811     0.99900
N2881       N  0.81255959  0.52976432  0.74194055    -0.05300
N2882       N  0.82690887  0.55552550  0.73220854    -0.61600
N2883       N  0.80995873  0.95666255  0.77019742    -0.04100
N2884       N  0.82396628  0.93113562  0.78107022    -0.62300
N2885       N  0.80923919  0.95620647  0.73933721    -0.04800
N2886       N  0.82241718  0.93020005  0.72852199    -0.61900
N2887       N  0.81276125  0.52842563  0.77277817    -0.03700
N2888       N  0.82737988  0.55311023  0.78471483    -0.62500
Mn2889     Mn  0.78736419  0.49430417  0.71378600     1.10700
C2890       C  0.83633047  0.56953178  0.75912123     1.00400
C2891       C  0.83140614  0.91488474  0.75481807     1.00500
N2892       N  0.72756562  0.95807723  0.82256561    -0.04800
N2893       N  0.71677057  0.93279784  0.83709206    -0.60200
N2894       N  0.76033321  0.52842733  0.82345389    -0.04100
N2895       N  0.77184388  0.55378979  0.83720946    -0.56900
N2896       N  0.72944223  0.52908969  0.82385787    -0.05400
N2897       N  0.71938717  0.55480279  0.83840437    -0.59700
N2898       N  0.75842596  0.95756806  0.82173812    -0.04400
N2899       N  0.76925715  0.93178333  0.83527689    -0.56900
Mn2900     Mn  0.70210055  0.49311948  0.79767580     1.20200
Mn2901     Mn  0.78557506  0.99381124  0.79682577     1.10100
Cl2902     Cl  0.74493871  0.49341326  0.75557813    -0.84900
C2903       C  0.74305464  0.91671848  0.84478560     0.97400
C2904       C  0.74617830  0.56986426  0.84667226     0.97200
C2905       C  0.89977240  0.90812426  0.76692615    -0.15400
C2906       C  0.92191920  0.90752382  0.78908811    -0.30500
H2907       H  0.89604395  0.92968539  0.75364210     0.13700
H2908       H  0.92587660  0.88647549  0.80292331     0.14200
C2909       C  0.58802804  0.58115287  0.76702068    -0.15400
C2910       C  0.56577091  0.58288796  0.78903820    -0.30500
H2911       H  0.59124776  0.55919669  0.75423830     0.13700
H2912       H  0.56213523  0.60439878  0.80223259     0.14200
C2913       C  0.90553762  0.58478189  0.77241925    -0.15400
C2914       C  0.90509925  0.56582379  0.79771642    -0.30500
H2915       H  0.92624042  0.58533898  0.75754690     0.13700
H2916       H  0.88462497  0.56517536  0.81282166     0.14200
C2917       C  0.58910097  0.89779580  0.78014245    -0.15400
C2918       C  0.58423073  0.92724343  0.76997054    -0.30500
H2919       H  0.57318160  0.88774902  0.79735579     0.13700
H2920       H  0.59884920  0.93744072  0.75183716     0.14200
C2921       C  0.72769156  0.90746504  0.91246042    -0.15400
C2922       C  0.70498367  0.90547303  0.93407255    -0.30500
H2923       H  0.74047480  0.92948200  0.90986013     0.13700
H2924       H  0.69182284  0.88386907  0.93721807     0.14200
C2925       C  0.71874198  0.59042939  0.91193577    -0.15400
C2926       C  0.72654631  0.56033808  0.91713371    -0.30500
H2927       H  0.70185273  0.60173151  0.92736598     0.13700
H2928       H  0.74433153  0.54886025  0.90302737     0.14200
C2929       C  0.70619856  0.58350024  0.57797489    -0.15400
C2930       C  0.72912921  0.58150969  0.59943191    -0.30500
H2931       H  0.69321152  0.60521380  0.57485041     0.13700
H2932       H  0.74165625  0.55935947  0.60217018     0.14200
C2933       C  0.71340277  0.89931787  0.60297582    -0.15400
C2934       C  0.72142334  0.90589349  0.57329692    -0.30500
H2935       H  0.69592379  0.91388024  0.61454842     0.13700
H2936       H  0.73954917  0.89229298  0.56169545     0.14200
C2937       C  0.90000327  0.73192579  0.91745844    -0.15400
C2938       C  0.91981252  0.70745823  0.91525794    -0.30500
H2939       H  0.89882564  0.74531227  0.93919415     0.13700
H2940       H  0.92096898  0.69368728  0.89384857     0.14200
C2941       C  0.58365454  0.72957921  0.91785703    -0.15400
C2942       C  0.56599747  0.70334384  0.91717719    -0.30500
H2943       H  0.58309794  0.74467748  0.93847382     0.13700
H2944       H  0.56643483  0.68800564  0.89678970     0.14200
C2945       C  0.89654668  0.71739619  0.60183379    -0.15400
C2946       C  0.92644578  0.72581510  0.59687615    -0.30500
H2947       H  0.88579109  0.70024664  0.58623634     0.13700
H2948       H  0.93735153  0.74371182  0.61139221     0.14200
C2949       C  0.58346679  0.70701041  0.57771943    -0.15400
C2950       C  0.58245597  0.73255319  0.59628657    -0.30500
H2951       H  0.60387132  0.69173806  0.57796981     0.13700
H2952       H  0.56172126  0.74747271  0.59628069     0.14200
loop_ 
_geom_bond_atom_site_label_1 
_geom_bond_atom_site_label_2 
_geom_bond_distance 
_geom_bond_site_symmetry_2 
_ccdc_geom_bond_type 
N1            N2   1.318       .  A
N1            N7   1.314       .  A
N1          Mn30   2.196       .  S
N2            C9   1.351       .  A
N3            N5   1.316       .  A
N3            N4   1.321       .  A
N3          Mn19   2.206       .  S
N4           C10   1.351       .  A
N5            N6   1.322       .  A
N5         Mn399   2.206       .  S
N6           C10   1.352       .  A
N7            N8   1.323       .  A
N7         Mn388   2.202       .  S
N8            C9   1.353       .  A
C9           C54   1.471       .  S
C10          C71   1.472       .  S
N11          N17   1.317       .  A
N11          N12   1.324       .  A
N11         Mn41   2.219       .  S
N12          C20   1.355       .  A
N13          N14   1.321       .  A
N13          N15   1.318       .  A
N13        Mn388   2.209       .  S
N14          C21   1.350       .  A
N15          N16   1.323       .  A
N15        Mn410   2.219       .  S
N16          C21   1.354       .  A
N17          N18   1.319       .  A
N17         Mn19   2.201       .  S
N18          C20   1.350       .  A
Mn19        N376   2.197       .  S
Mn19        N382   2.209       .  S
Mn19       Cl412   2.550       .  S
C20         C168   1.475       .  S
C21         C161   1.475       .  S
N22          N23   1.321       .  A
N22          N28   1.315       .  A
N22        Mn399   2.204       .  S
N23          C31   1.351       .  A
N24          N26   1.316       .  A
N24          N25   1.323       .  A
N24         Mn42   2.213       .  S
N25          C32   1.353       .  A
N26          N27   1.321       .  A
N26         Mn30   2.204       .  S
N27          C32   1.350       .  A
N28          N29   1.321       .  A
N28        Mn411   2.199       .  S
N29          C31   1.351       .  A
Mn30        N374   2.212   1_554  S
Mn30        N391   2.195   1_554  S
Mn30        Cl43   2.550       .  S
C31         C178   1.468       .  S
C32         C157   1.472       .  S
N33          N34   1.325       .  A
N33          N39   1.316       .  A
N33        Mn410   2.218       .  S
N34          C44   1.355       .  A
N35          N36   1.320       .  A
N35          N37   1.317       .  A
N35        Mn411   2.202       .  S
N36          C45   1.351       .  A
N37          N38   1.323       .  A
N37         Mn41   2.214       .  S
N38          C45   1.353       .  A
N39          N40   1.319       .  A
N39         Mn42   2.200       .  S
N40          C44   1.350       .  A
Mn41        N384   2.212       .  S
Mn41        N402   2.214       .  S
Mn41       Cl412   2.554       .  S
Mn42        N397   2.195   1_554  S
Mn42        N404   2.209   1_554  S
Mn42        Cl43   2.545       .  S
Cl43       Mn388   2.544       .  S
Cl43       Mn410   2.560       .  S
C44          C47   1.472       .  S
C45          C64   1.472       .  S
N46          C50   1.351       .  A
N46          C47   1.354       .  A
N46         C367   1.434       .  S
C47          C48   1.384       .  A
C48          C49   1.382       .  A
C48          H51   1.082       .  S
C49          C50   1.380       .  A
C49          H52   1.082       .  S
C50         C116   1.472       .  S
N53          C57   1.357       .  A
N53          C54   1.353       .  A
N53         C362   1.438       .  S
C54          C55   1.380       .  A
C55          C56   1.376       .  A
C55          H58   1.082       .  S
C56          C57   1.382       .  A
C56          H59   1.082       .  S
C57         C117   1.470       .  S
N60          C64   1.353       .  A
N60          C61   1.352       .  A
N60         C358   1.433       .  S
C61         C151   1.475       .  S
C61          C62   1.381       .  A
C62          C63   1.383       .  A
C62          H65   1.082       .  S
C63          C64   1.383       .  A
C63          H66   1.082       .  S
N67          C71   1.351       .  A
N67          C68   1.355       .  A
N67         C354   1.435       .  S
C68         C152   1.473       .  S
C68          C69   1.384       .  A
C69          C70   1.382       .  A
C69          H72   1.082       .  S
C70          C71   1.380       .  A
C70          H73   1.082       .  S
N74          C79   1.354       .  A
N74         C447   1.352   1_554  A
N74         H106   1.039       .  S
N75          C82   1.352       .  A
N75        C1559   1.351       .  A
N76          C81   1.353       .  A
N76         C449   1.353   1_554  A
N76         H107   1.030       .  S
N77          C84   1.349       .  A
N77        C1561   1.349       .  A
C78         N443   1.351       .  A
C78          C86   1.388       .  A
C78          C94   1.415       .  A
C79          C95   1.417       .  A
C79          C87   1.389       .  A
C80         N445   1.350       .  A
C80          C88   1.388       .  A
C80          C97   1.413       .  A
C81          C96   1.416       .  A
C81          C89   1.386       .  A
C82          C94   1.411       .  A
C82          C90   1.384       .  A
C83        N1551   1.351   1_455  A
C83          C97   1.420       .  A
C83          C91   1.386       .  A
C84          C92   1.386       .  A
C84          C95   1.407       .  A
C85        N1553   1.349   1_455  A
C85          C93   1.387       .  A
C85          C96   1.417       .  A
C86         C456   1.375       .  A
C86          H98   1.082       .  S
C87         C455   1.370   1_554  A
C87          H99   1.081       .  S
C88         C458   1.378       .  A
C88         H100   1.082       .  S
C89         C457   1.371   1_554  A
C89         H101   1.080       .  S
C90        C1567   1.367       .  A
C90         H102   1.079       .  S
C91        C1566   1.369   1_455  A
C91         H103   1.079       .  S
C92        C1569   1.370       .  A
C92         H104   1.082       .  S
C93        C1568   1.371   1_455  A
C93         H105   1.081       .  S
C94         C355   1.488       .  S
C95         C363   1.482       .  S
C96         C366   1.489       .  S
C97         C359   1.488       .  S
N108        N109   1.322       .  A
N108        N114   1.315       .  A
N108      Mn1613   2.206   1_455  S
N109        C116   1.352       .  A
N110        N112   1.314       .  A
N110        N111   1.326       .  A
N110       Mn126   2.210       .  S
N111        C117   1.356       .  A
N112        N113   1.317       .  A
N112       Mn137   2.188       .  S
N113        C117   1.348       .  A
N114        N115   1.321       .  A
N114      Mn1602   2.206   1_455  S
N115        C116   1.352       .  A
N118        N124   1.317       .  A
N118        N119   1.326       .  A
N118       Mn148   2.218       .  S
N119        C127   1.355       .  A
N120        N121   1.322       .  A
N120        N122   1.317       .  A
N120      Mn1602   2.207   1_455  S
N121        C128   1.352       .  A
N122        N123   1.320       .  A
N122      Mn1624   2.200   1_455  S
N123        C128   1.350       .  A
N124        N125   1.317       .  A
N124       Mn126   2.201       .  S
N125        C127   1.349       .  A
Mn126      N1590   2.209       .  S
Mn126      N1596   2.195       .  S
Mn126      Cl150   2.549       .  S
C127        C226   1.474       .  S
C128        C230   1.469       .  S
N129        N130   1.319       .  A
N129        N135   1.316       .  A
N129       Mn137   2.187       .  S
N130        C138   1.347       .  A
N131        N133   1.315       .  A
N131        N132   1.325       .  A
N131      Mn1625   2.211   1_455  S
N132        C139   1.355       .  A
N133        N134   1.316       .  A
N133      Mn1613   2.184   1_455  S
N134        C139   1.347       .  A
N135        N136   1.324       .  A
N135       Mn149   2.221       .  S
N136        C138   1.355       .  A
Mn137      N1584   2.194       .  S
Mn137      N1609   2.183       .  S
Mn137      Cl150   2.530       .  S
C138        C240   1.470       .  S
C139        C216   1.469       .  S
N140        N141   1.324       .  A
N140        N146   1.317       .  A
N140      Mn1624   2.222   1_455  S
N141        C151   1.354       .  A
N142        N143   1.319       .  A
N142        N144   1.317       .  A
N142       Mn149   2.203       .  S
N143        C152   1.350       .  A
N144        N145   1.324       .  A
N144       Mn148   2.216       .  S
N145        C152   1.354       .  A
N146        N147   1.321       .  A
N146      Mn1625   2.208   1_455  S
N147        C151   1.351       .  A
Mn148      N1598   2.216       .  S
Mn148      N1616   2.217       .  S
Mn148      Cl150   2.551       .  S
Mn149      N1607   2.208       .  S
Mn149      N1622   2.213       .  S
Mn149      Cl150   2.553       .  S
N153        C157   1.350       .  A
N153        C154   1.352       .  A
N153        C350   1.433       .  S
C154        C285   1.470       .  S
C154        C155   1.383       .  A
C155        C156   1.383       .  A
C155        H158   1.082       .  S
C156        C157   1.381       .  A
C156        H159   1.082       .  S
N160        C164   1.354       .  A
N160        C161   1.350       .  A
N160        C347   1.433       .  S
C161        C162   1.382       .  A
C162        C163   1.384       .  A
C162        H165   1.082       .  S
C163        C164   1.384       .  A
C163        H166   1.082       .  S
C164        C286   1.474       .  S
N167        C171   1.358       .  A
N167        C168   1.355       .  A
N167        C342   1.437       .  S
C168        C169   1.381       .  A
C169        C170   1.377       .  A
C169        H172   1.082       .  S
C170        C171   1.382       .  A
C170        H173   1.083       .  S
C171        C321   1.475       .  S
N174        C178   1.351       .  A
N174        C175   1.347       .  A
N174        C338   1.434       .  S
C175        C320   1.466       .  S
C175        C176   1.381       .  A
C176        C177   1.383       .  A
C176        H179   1.082       .  S
C177        C178   1.383       .  A
C177        H180   1.082       .  S
N181        C186   1.350       .  A
N181        C554   1.350   1_554  A
N181        H213   1.034       .  S
N182        C190   1.350       .  A
N182        C927   1.350       .  A
N183        C188   1.349       .  A
N183        C556   1.353   1_554  A
N183        H214   1.029       .  S
N184        C192   1.352       .  A
N184        C929   1.349       .  A
C185        N550   1.353       .  A
C185        C193   1.389       .  A
C185        C201   1.414       .  A
C186        C202   1.414       .  A
C186        C194   1.387       .  A
C187        N552   1.352       .  A
C187        C195   1.385       .  A
C187        C204   1.408       .  A
C188        C203   1.421       .  A
C188        C196   1.388       .  A
C189        N920   1.348   1_545  A
C189        C201   1.404       .  A
C189        C197   1.385       .  A
C190        C204   1.411       .  A
C190        C198   1.387       .  A
C191        N922   1.352   1_545  A
C191        C199   1.384       .  A
C191        C202   1.411       .  A
C192        C200   1.386       .  A
C192        C203   1.415       .  A
C193        C563   1.370       .  A
C193        H205   1.080       .  S
C194        C562   1.374       .  A
C194        H206   1.082       .  S
C195        C565   1.371       .  A
C195        H207   1.081       .  S
C196        C564   1.373       .  A
C196        H208   1.080       .  S
C197        C936   1.372   1_545  A
C197        H209   1.082       .  S
C198        C935   1.370       .  A
C198        H210   1.082       .  S
C199        C938   1.369   1_545  A
C199        H211   1.081       .  S
C200        C937   1.373       .  A
C200        H212   1.081       .  S
C201        C343   1.480       .  S
C202        C346   1.488       .  S
C203        C351   1.488       .  S
C204        C339   1.482       .  S
N215        C219   1.355       .  A
N215        C216   1.357       .  A
N215        C334   1.440       .  S
C216        C217   1.381       .  A
C217        C218   1.376       .  A
C217        H220   1.082       .  S
C218        C219   1.382       .  A
C218        H221   1.083       .  S
C219        C297   1.473       .  S
N222        C226   1.359       .  A
N222        C223   1.357       .  A
N222        C330   1.439       .  S
C223        C307   1.477       .  S
C223        C224   1.381       .  A
C224        C225   1.377       .  A
C224        H227   1.082       .  S
C225        C226   1.382       .  A
C225        H228   1.083       .  S
N229        C233   1.355       .  A
N229        C230   1.349       .  A
N229        C326   1.435       .  S
C230        C231   1.380       .  A
C231        C232   1.383       .  A
C231        H234   1.082       .  S
C232        C233   1.384       .  A
C232        H235   1.082       .  S
C233        C296   1.474       .  S
N236        C240   1.348       .  A
N236        C237   1.355       .  A
N236        C322   1.434       .  S
C237        C308   1.474       .  S
C237        C238   1.384       .  A
C238        C239   1.382       .  A
C238        H241   1.082       .  S
C239        C240   1.381       .  A
C239        H242   1.082       .  S
N243        C247   1.353       .  A
N243        C986   1.355       .  A
N243        H275   1.040       .  S
N244        C251   1.352       .  A
N244       C1728   1.352       .  A
N245        C249   1.352       .  A
N245        C988   1.351       .  A
N245        H276   1.042       .  S
N246        C253   1.350       .  A
N246       C1730   1.350       .  A
C247        C255   1.385       .  A
C247        C263   1.410       .  A
C248        N981   1.352       .  A
C248        C264   1.414       .  A
C248        C256   1.389       .  A
C249        C257   1.389       .  A
C249        C266   1.414       .  A
C250        N983   1.352   1_545  A
C250        C265   1.407       .  A
C250        C258   1.385       .  A
C251        C263   1.416       .  A
C251        C259   1.387       .  A
C252       N1720   1.350   1_455  A
C252        C266   1.407       .  A
C252        C260   1.385   1_455  A
C253        C261   1.386       .  A
C253        C264   1.406       .  A
C254       N1722   1.351   1_455  A
C254        C262   1.387       .  A
C254        C265   1.412       .  A
C255        C994   1.369       .  A
C255        H267   1.080       .  S
C256        C993   1.370   1_545  A
C256        H268   1.080       .  S
C257        C996   1.370       .  A
C257        H269   1.080       .  S
C258        C995   1.370   1_545  A
C258        H270   1.082       .  S
C259       C1736   1.373       .  A
C259        H271   1.082       .  S
C260       C1735   1.373       .  A
C260        H272   1.082   1_655  S
C261       C1738   1.373       .  A
C261        H273   1.082       .  S
C262       C1737   1.373   1_455  A
C262        H274   1.082       .  S
C263        C323   1.486       .  S
C264        C331   1.483       .  S
C265        C327   1.483       .  S
C266        C335   1.482       .  S
N277        N278   1.321       .  A
N277        N283   1.316       .  A
N277      Mn1044   2.204       .  S
N278        C285   1.352       .  A
N279        N281   1.315       .  A
N279        N280   1.323       .  A
N279       Mn295   2.212   1_545  S
N280        C286   1.354       .  A
N281        N282   1.321       .  A
N281       Mn306   2.206   1_545  S
N282        C286   1.352       .  A
N283        N284   1.322       .  A
N283      Mn1033   2.205       .  S
N284        C285   1.351       .  A
N287        N293   1.318       .  A
N287        N288   1.324       .  A
N287       Mn317   2.219   1_545  S
N288        C296   1.355       .  A
N289        N290   1.319       .  A
N289        N291   1.316       .  A
N289      Mn1033   2.201       .  S
N290        C297   1.351       .  A
N291        N292   1.324       .  A
N291      Mn1055   2.213       .  S
N292        C297   1.354       .  A
N293        N294   1.320       .  A
N293       Mn295   2.212   1_545  S
N294        C296   1.351       .  A
Mn295      N1021   2.217       .  S
Mn295      N1027   2.197       .  S
Mn295      Cl319   2.546       .  S
N298        N299   1.319       .  A
N298        N304   1.316       .  A
N298       Mn306   2.206   1_545  S
N299        C307   1.352       .  A
N300        N302   1.315       .  A
N300        N301   1.323       .  A
N300       Mn318   2.207       .  S
N301        C308   1.353       .  A
N302        N303   1.321       .  A
N302      Mn1044   2.209       .  S
N303        C308   1.353       .  A
N304        N305   1.325       .  A
N304      Mn1056   2.214   1_545  S
N305        C307   1.354       .  A
Mn306      N1015   2.205       .  S
Mn306      N1040   2.212       .  S
Mn306      Cl319   2.547       .  S
N309        N310   1.321       .  A
N309        N315   1.317       .  A
N309      Mn1055   2.207       .  S
N310        C320   1.351       .  A
N311        N312   1.317       .  A
N311        N313   1.317       .  A
N311      Mn1056   2.194   1_545  S
N312        C321   1.347       .  A
N313        N314   1.327       .  A
N313       Mn317   2.222   1_545  S
N314        C321   1.357       .  A
N315        N316   1.320       .  A
N315       Mn318   2.203       .  S
N316        C320   1.350       .  A
Mn317      N1029   2.223       .  S
Mn317      N1047   2.223       .  S
Mn317      Cl319   2.566       .  S
Mn318      N1042   2.217       .  S
Mn318      N1049   2.194       .  S
Mn318     Cl1057   2.548       .  S
Cl319     Mn1056   2.546       .  S
C322        C323   1.338       .  D
C322        H324   1.088       .  S
C323        H325   1.085       .  S
C326        C327   1.338       .  D
C326        H328   1.088       .  S
C327        H329   1.084       .  S
C330        C331   1.341       .  D
C330        H332   1.086       .  S
C331        H333   1.083       .  S
C334        C335   1.342       .  D
C334        H336   1.086       .  S
C335        H337   1.083       .  S
C338        C339   1.339       .  D
C338        H340   1.087       .  S
C339        H341   1.084       .  S
C342        C343   1.339       .  D
C342        H344   1.086       .  S
C343        H345   1.084       .  S
C346        C347   1.341       .  D
C346        H348   1.084       .  S
C347        H349   1.087       .  S
C350        C351   1.343       .  D
C350        H352   1.087       .  S
C351        H353   1.084       .  S
C354        C355   1.341       .  D
C354        H356   1.087       .  S
C355        H357   1.084       .  S
C358        C359   1.343       .  D
C358        H360   1.087       .  S
C359        H361   1.085       .  S
C362        C363   1.340       .  D
C362        H364   1.086       .  S
C363        H365   1.084       .  S
C366        C367   1.342       .  D
C366        H368   1.085       .  S
C367        H369   1.087       .  S
N370        N371   1.319       .  A
N370        N376   1.315       .  A
N370       Mn399   2.205       .  S
N371        C378   1.351       .  A
N372        N374   1.315       .  A
N372        N373   1.322       .  A
N372       Mn388   2.212   1_556  S
N373        C379   1.353       .  A
N374        N375   1.322       .  A
N375        C379   1.354       .  A
N376        N377   1.323       .  A
N377        C378   1.351       .  A
C378        C423   1.468       .  S
C379        C440   1.475       .  S
N380        N386   1.317       .  A
N380        N381   1.325       .  A
N380       Mn410   2.217   1_556  S
N381        C389   1.355       .  A
N382        N383   1.321       .  A
N382        N384   1.316       .  A
N383        C390   1.352       .  A
N384        N385   1.323       .  A
N385        C390   1.353       .  A
N386        N387   1.319       .  A
N386       Mn388   2.202   1_556  S
N387        C389   1.350       .  A
C389        C537   1.475       .  S
C390        C530   1.474       .  S
N391        N392   1.319       .  A
N391        N397   1.315       .  A
N392        C400   1.350       .  A
N393        N395   1.315       .  A
N393        N394   1.323       .  A
N393       Mn411   2.205       .  S
N394        C401   1.352       .  A
N395        N396   1.320       .  A
N395       Mn399   2.204       .  S
N396        C401   1.352       .  A
N397        N398   1.320       .  A
N398        C400   1.350       .  A
Mn399      Cl412   2.539       .  S
C400        C547   1.461       .  S
C401        C526   1.472       .  S
N402        N403   1.322       .  A
N402        N408   1.317       .  A
N403        C413   1.352       .  A
N404        N405   1.322       .  A
N404        N406   1.317       .  A
N405        C414   1.351       .  A
N406        N407   1.323       .  A
N406       Mn410   2.220   1_556  S
N407        C414   1.354       .  A
N408        N409   1.319       .  A
N408       Mn411   2.189       .  S
N409        C413   1.347       .  A
Mn411      Cl412   2.550       .  S
C413        C416   1.463       .  S
C414        C433   1.474       .  S
N415        C419   1.352       .  A
N415        C416   1.346       .  A
N415        C736   1.435       .  S
C416        C417   1.380       .  A
C417        C418   1.382       .  A
C417        H420   1.082       .  S
C418        C419   1.383       .  A
C418        H421   1.082       .  S
C419        C485   1.466       .  S
N422        C426   1.354       .  A
N422        C423   1.357       .  A
N422        C731   1.441       .  S
C423        C424   1.380       .  A
C424        C425   1.375       .  A
C424        H427   1.080       .  S
C425        C426   1.381       .  A
C425        H428   1.082       .  S
C426        C486   1.470       .  S
N429        C433   1.353       .  A
N429        C430   1.353       .  A
N429        C727   1.436       .  S
C430        C520   1.468       .  S
C430        C431   1.383       .  A
C431        C432   1.381       .  A
C431        H434   1.083       .  S
C432        C433   1.381       .  A
C432        H435   1.082       .  S
N436        C440   1.356       .  A
N436        C437   1.349       .  A
N436        C723   1.436       .  S
C437        C521   1.470       .  S
C437        C438   1.381       .  A
C438        C439   1.383       .  A
C438        H441   1.082       .  S
C439        C440   1.384       .  A
C439        H442   1.082       .  S
N443        C448   1.351       .  A
N443        H475   1.036       .  S
N444        C451   1.351       .  A
N444       C1928   1.351       .  A
N445        C450   1.351       .  A
N445        H476   1.032       .  S
N446        C453   1.354       .  A
N446       C1930   1.351       .  A
C447        C455   1.386       .  A
C447        C463   1.409       .  A
C448        C464   1.408       .  A
C448        C456   1.385       .  A
C449        C457   1.388       .  A
C449        C466   1.424       .  A
C450        C465   1.417       .  A
C450        C458   1.388       .  A
C451        C463   1.415       .  A
C451        C459   1.387       .  A
C452       N1920   1.353   1_455  A
C452        C466   1.415       .  A
C452        C460   1.386   1_455  A
C453        C461   1.386       .  A
C453        C464   1.415       .  A
C454       N1922   1.351   1_455  A
C454        C462   1.385       .  A
C454        C465   1.407       .  A
C455        H467   1.082       .  S
C456        H468   1.082       .  S
C457        H469   1.079       .  S
C458        H470   1.082       .  S
C459       C1936   1.372       .  A
C459        H471   1.081       .  S
C460       C1935   1.373       .  A
C460        H472   1.082   1_655  S
C461       C1938   1.367       .  A
C461        H473   1.080       .  S
C462       C1937   1.368   1_455  A
C462        H474   1.082       .  S
C463        C724   1.483       .  S
C464        C732   1.486       .  S
C465        C735   1.480       .  S
C466        C728   1.494       .  S
N477        N478   1.320       .  A
N477        N483   1.315       .  A
N477      Mn1982   2.195   1_455  S
N478        C485   1.350       .  A
N479        N481   1.316       .  A
N479        N480   1.324       .  A
N479       Mn495   2.211       .  S
N480        C486   1.354       .  A
N481        N482   1.318       .  A
N481       Mn506   2.195       .  S
N482        C486   1.349       .  A
N483        N484   1.322       .  A
N483      Mn1971   2.206   1_455  S
N484        C485   1.352       .  A
N487        N493   1.316       .  A
N487        N488   1.322       .  A
N487       Mn517   2.214       .  S
N488        C496   1.352       .  A
N489        N490   1.320       .  A
N489        N491   1.317       .  A
N489      Mn1971   2.209   1_455  S
N490        C497   1.351       .  A
N491        N492   1.323       .  A
N491      Mn1993   2.210   1_455  S
N492        C497   1.352       .  A
N493        N494   1.322       .  A
N493       Mn495   2.204       .  S
N494        C496   1.351       .  A
Mn495      N1959   2.210       .  S
Mn495      N1965   2.213       .  S
Mn495      Cl519   2.556       .  S
C496        C595   1.471       .  S
C497        C599   1.472       .  S
N498        N499   1.323       .  A
N498        N504   1.315       .  A
N498       Mn506   2.208       .  S
N499        C507   1.353       .  A
N500        N502   1.316       .  A
N500        N501   1.325       .  A
N500      Mn1994   2.218   1_455  S
N501        C508   1.355       .  A
N502        N503   1.319       .  A
N502      Mn1982   2.202   1_455  S
N503        C508   1.351       .  A
N504        N505   1.322       .  A
N504       Mn518   2.204       .  S
N505        C507   1.352       .  A
Mn506      N1953   2.208       .  S
Mn506      N1978   2.198       .  S
Mn506      Cl519   2.539       .  S
C507        C609   1.476       .  S
C508        C585   1.476       .  S
N509        N510   1.323       .  A
N509        N515   1.316       .  A
N509      Mn1993   2.211   1_455  S
N510        C520   1.353       .  A
N511        N512   1.320       .  A
N511        N513   1.316       .  A
N511       Mn518   2.200       .  S
N512        C521   1.349       .  A
N513        N514   1.322       .  A
N513       Mn517   2.211       .  S
N514        C521   1.353       .  A
N515        N516   1.319       .  A
N515      Mn1994   2.195   1_455  S
N516        C520   1.349       .  A
Mn517      N1967   2.214       .  S
Mn517      N1985   2.218       .  S
Mn517      Cl519   2.550       .  S
Mn518      N1976   2.213       .  S
Mn518      N1991   2.207       .  S
Mn518      Cl519   2.549       .  S
N522        C526   1.353       .  A
N522        C523   1.357       .  A
N522        C719   1.438       .  S
C523        C654   1.469       .  S
C523        C524   1.382       .  A
C524        C525   1.376       .  A
C524        H527   1.083       .  S
C525        C526   1.380       .  A
C525        H528   1.080       .  S
N529        C533   1.349       .  A
N529        C530   1.355       .  A
N529        C716   1.435       .  S
C530        C531   1.384       .  A
C531        C532   1.383       .  A
C531        H534   1.082       .  S
C532        C533   1.381       .  A
C532        H535   1.082       .  S
C533        C655   1.470       .  S
N536        C540   1.354       .  A
N536        C537   1.357       .  A
N536        C711   1.435       .  S
C537        C538   1.382       .  A
C538        C539   1.379       .  A
C538        H541   1.082       .  S
C539        C540   1.382       .  A
C539        H542   1.082       .  S
C540        C690   1.476       .  S
N543        C547   1.349       .  A
N543        C544   1.346       .  A
N543        C707   1.433       .  S
C544        C689   1.463       .  S
C544        C545   1.381       .  A
C545        C546   1.382       .  A
C545        H548   1.082       .  S
C546        C547   1.383       .  A
C546        H549   1.082       .  S
N550        C555   1.352       .  A
N550        H582   1.042       .  S
N551       C1296   1.346       .  A
N551        C559   1.348       .  A
N552        C557   1.353       .  A
N552        H583   1.041       .  S
N553       C1298   1.350       .  A
N553        C561   1.349       .  A
C554        C562   1.386   1_556  A
C554        C570   1.408       .  A
C555        C571   1.407       .  A
C555        C563   1.385       .  A
C556        C564   1.386   1_556  A
C556        C573   1.414       .  A
C557        C572   1.416       .  A
C557        C565   1.389       .  A
C558       N1289   1.351       .  A
C558        C570   1.414       .  A
C558        C566   1.387       .  A
C559        C573   1.414       .  A
C559        C567   1.387       .  A
C560       N1291   1.351       .  A
C560        C568   1.386       .  A
C560        C571   1.412       .  A
C561        C569   1.385       .  A
C561        C572   1.406       .  A
C562        H574   1.082   1_554  S
C563        H575   1.081       .  S
C564        H576   1.081   1_554  S
C565        H577   1.079       .  S
C566       C1305   1.367   1_545  A
C566        H578   1.079       .  S
C567       C1304   1.371       .  A
C567        H579   1.081       .  S
C568       C1307   1.372   1_545  A
C568        H580   1.082       .  S
C569       C1306   1.371       .  A
C569        H581   1.082       .  S
C570        C712   1.478       .  S
C571        C715   1.484       .  S
C572        C720   1.482       .  S
C573        C708   1.486       .  S
N584        C588   1.356       .  A
N584        C585   1.354       .  A
N584        C703   1.436       .  S
C585        C586   1.382       .  A
C586        C587   1.379       .  A
C586        H589   1.082       .  S
C587        C588   1.382       .  A
C587        H590   1.082       .  S
C588        C666   1.474       .  S
N591        C595   1.350       .  A
N591        C592   1.349       .  A
N591        C699   1.433       .  S
C592        C676   1.467       .  S
C592        C593   1.383       .  A
C593        C594   1.384       .  A
C593        H596   1.082       .  S
C594        C595   1.382       .  A
C594        H597   1.082       .  S
N598        C602   1.351       .  A
N598        C599   1.355       .  A
N598        C695   1.435       .  S
C599        C600   1.383       .  A
C600        C601   1.381       .  A
C600        H603   1.082       .  S
C601        C602   1.381       .  A
C601        H604   1.082       .  S
C602        C665   1.471       .  S
N605        C609   1.354       .  A
N605        C606   1.348       .  A
N605        C691   1.432       .  S
C606        C677   1.473       .  S
C606        C607   1.382       .  A
C607        C608   1.385       .  A
C607        H610   1.082       .  S
C608        C609   1.383       .  A
C608        H611   1.082       .  S
N612       C1355   1.348       .  A
N612        C616   1.348       .  A
N612        H644   1.037       .  S
N613        C620   1.349       .  A
N613       C2097   1.351       .  A
N614       C1357   1.349       .  A
N614        C618   1.350       .  A
N614        H645   1.038       .  S
N615        C622   1.350       .  A
N615       C2099   1.351       .  A
C616        C624   1.389       .  A
C616        C632   1.410       .  A
C617       N1350   1.351   1_545  A
C617        C633   1.413       .  A
C617        C625   1.387       .  A
C618        C626   1.387       .  A
C618        C635   1.408       .  A
C619       N1352   1.349       .  A
C619        C634   1.413       .  A
C619        C627   1.388       .  A
C620        C632   1.405       .  A
C620        C628   1.384       .  A
C621       N2089   1.351       .  A
C621        C635   1.412       .  A
C621        C629   1.387       .  A
C622        C630   1.386       .  A
C622        C633   1.417       .  A
C623       N2091   1.353   1_455  A
C623        C631   1.384   1_455  A
C623        C634   1.412       .  A
C624       C1363   1.377       .  A
C624        H636   1.082       .  S
C625       C1362   1.377   1_545  A
C625        H637   1.082       .  S
C626       C1365   1.374       .  A
C626        H638   1.082       .  S
C627       C1364   1.375   1_545  A
C627        H639   1.082       .  S
C628       C2105   1.369       .  A
C628        H640   1.081       .  S
C629       C2104   1.368   1_455  A
C629        H641   1.081       .  S
C630       C2107   1.365       .  A
C630        H642   1.076       .  S
C631       C2106   1.368       .  A
C631        H643   1.079   1_655  S
C632        C692   1.474       .  S
C633        C700   1.488       .  S
C634        C696   1.489       .  S
C635        C704   1.477       .  S
N646        N647   1.316       .  A
N646        N652   1.314       .  A
N646      Mn1413   2.189       .  S
N647        C654   1.349       .  A
N648        N650   1.314       .  A
N648        N649   1.322       .  A
N648       Mn664   2.208   1_545  S
N649        C655   1.353       .  A
N650        N651   1.321       .  A
N650       Mn675   2.194   1_545  S
N651        C655   1.350       .  A
N652        N653   1.325       .  A
N652      Mn1402   2.207       .  S
N653        C654   1.354       .  A
N656        N662   1.317       .  A
N656        N657   1.323       .  A
N656       Mn686   2.213   1_545  S
N657        C665   1.353       .  A
N658        N659   1.318       .  A
N658        N660   1.317       .  A
N658      Mn1402   2.197       .  S
N659        C666   1.348       .  A
N660        N661   1.326       .  A
N660      Mn1424   2.217       .  S
N661        C666   1.355       .  A
N662        N663   1.320       .  A
N662       Mn664   2.206   1_545  S
N663        C665   1.350       .  A
Mn664      N1390   2.212       .  S
Mn664      N1396   2.200       .  S
Mn664      Cl688   2.542       .  S
N667        N668   1.319       .  A
N667        N673   1.315       .  A
N667       Mn675   2.190   1_545  S
N668        C676   1.349       .  A
N669        N671   1.315       .  A
N669        N670   1.323       .  A
N669       Mn687   2.212       .  S
N670        C677   1.354       .  A
N671        N672   1.321       .  A
N671      Mn1413   2.201       .  S
N672        C677   1.350       .  A
N673        N674   1.323       .  A
N673      Mn1425   2.211   1_545  S
N674        C676   1.353       .  A
Mn675      N1384   2.196       .  S
Mn675      N1409   2.192       .  S
Mn675      Cl688   2.547       .  S
N678        N679   1.321       .  A
N678        N684   1.317       .  A
N678      Mn1424   2.204       .  S
N679        C689   1.351       .  A
N680        N681   1.318       .  A
N680        N682   1.317       .  A
N680      Mn1425   2.200   1_545  S
N681        C690   1.349       .  A
N682        N683   1.326       .  A
N682       Mn686   2.224   1_545  S
N683        C690   1.356       .  A
N684        N685   1.319       .  A
N684       Mn687   2.197       .  S
N685        C689   1.349       .  A
Mn686      N1398   2.221       .  S
Mn686      N1416   2.215       .  S
Mn686      Cl688   2.561       .  S
Mn687      N1411   2.210       .  S
Mn687      N1418   2.202       .  S
Mn687     Cl1426   2.544       .  S
Cl688     Mn1425   2.540       .  S
C691        C692   1.336       .  D
C691        H693   1.088       .  S
C692        H694   1.082       .  S
C695        C696   1.342       .  D
C695        H697   1.087       .  S
C696        H698   1.084       .  S
C699        C700   1.343       .  D
C699        H701   1.087       .  S
C700        H702   1.085       .  S
C703        C704   1.340       .  D
C703        H705   1.086       .  S
C704        H706   1.083       .  S
C707        C708   1.342       .  D
C707        H709   1.087       .  S
C708        H710   1.084       .  S
C711        C712   1.339       .  D
C711        H713   1.087       .  S
C712        H714   1.085       .  S
C715        C716   1.337       .  D
C715        H717   1.084       .  S
C716        H718   1.088       .  S
C719        C720   1.338       .  D
C719        H721   1.087       .  S
C720        H722   1.084       .  S
C723        C724   1.336       .  D
C723        H725   1.087       .  S
C724        H726   1.084       .  S
C727        C728   1.345       .  D
C727        H729   1.087       .  S
C728        H730   1.085       .  S
C731        C732   1.342       .  D
C731        H733   1.086       .  S
C732        H734   1.084       .  S
C735        C736   1.336       .  D
C735        H737   1.085       .  S
C736        H738   1.087       .  S
N739        N740   1.318       .  A
N739        N745   1.316       .  A
N739       Mn768   2.197       .  S
N740        C747   1.350       .  A
N741        N743   1.315       .  A
N741        N742   1.323       .  A
N741       Mn757   2.202       .  S
N742        C748   1.352       .  A
N743        N744   1.322       .  A
N743      Mn1137   2.217       .  S
N744        C748   1.354       .  A
N745        N746   1.324       .  A
N745      Mn1126   2.212       .  S
N746        C747   1.354       .  A
C747        C792   1.471       .  S
C748        C809   1.474       .  S
N749        N755   1.317       .  A
N749        N750   1.324       .  A
N749       Mn779   2.212       .  S
N750        C758   1.354       .  A
N751        N752   1.320       .  A
N751        N753   1.316       .  A
N751      Mn1126   2.205       .  S
N752        C759   1.352       .  A
N753        N754   1.320       .  A
N753      Mn1148   2.194       .  S
N754        C759   1.350       .  A
N755        N756   1.318       .  A
N755       Mn757   2.199       .  S
N756        C758   1.349       .  A
Mn757      N1114   2.205       .  S
Mn757      N1120   2.198       .  S
Mn757     Cl1150   2.556       .  S
C758        C906   1.469       .  S
C759        C899   1.465       .  S
N760        N761   1.321       .  A
N760        N766   1.316       .  A
N760      Mn1137   2.207       .  S
N761        C769   1.352       .  A
N762        N764   1.315       .  A
N762        N763   1.323       .  A
N762       Mn780   2.204       .  S
N763        C770   1.352       .  A
N764        N765   1.321       .  A
N764       Mn768   2.209       .  S
N765        C770   1.352       .  A
N766        N767   1.324       .  A
N766      Mn1149   2.217       .  S
N767        C769   1.355       .  A
Mn768      N1112   2.210   1_554  S
Mn768      N1129   2.197   1_554  S
Mn768      Cl781   2.540       .  S
C769        C916   1.477       .  S
C770        C895   1.472       .  S
N771        N772   1.322       .  A
N771        N777   1.317       .  A
N771      Mn1148   2.212       .  S
N772        C782   1.352       .  A
N773        N774   1.319       .  A
N773        N775   1.317       .  A
N773      Mn1149   2.198       .  S
N774        C783   1.349       .  A
N775        N776   1.323       .  A
N775       Mn779   2.213       .  S
N776        C783   1.353       .  A
N777        N778   1.322       .  A
N777       Mn780   2.212       .  S
N778        C782   1.352       .  A
Mn779      N1122   2.212       .  S
Mn779      N1140   2.210       .  S
Mn779     Cl1150   2.552       .  S
Mn780      N1135   2.210   1_554  S
Mn780      N1142   2.205   1_554  S
Mn780      Cl781   2.549       .  S
Cl781     Mn1126   2.550       .  S
Cl781     Mn1148   2.555       .  S
C782        C785   1.474       .  S
C783        C802   1.469       .  S
N784        C788   1.357       .  A
N784        C785   1.350       .  A
N784       C1105   1.434       .  S
C785        C786   1.381       .  A
C786        C787   1.383       .  A
C786        H789   1.082       .  S
C787        C788   1.384       .  A
C787        H790   1.082       .  S
C788        C854   1.477       .  S
N791        C795   1.355       .  A
N791        C792   1.352       .  A
N791       C1100   1.437       .  S
C792        C793   1.382       .  A
C793        C794   1.378       .  A
C793        H796   1.082       .  S
C794        C795   1.382       .  A
C794        H797   1.082       .  S
C795        C855   1.471       .  S
N798        C802   1.351       .  A
N798        C799   1.353       .  A
N798       C1096   1.435       .  S
C799        C889   1.468       .  S
C799        C800   1.383       .  A
C800        C801   1.380       .  A
C800        H803   1.082       .  S
C801        C802   1.380       .  A
C801        H804   1.082       .  S
N805        C809   1.355       .  A
N805        C806   1.349       .  A
N805       C1092   1.432       .  S
C806        C890   1.470       .  S
C806        C807   1.380       .  A
C807        C808   1.382       .  A
C807        H810   1.082       .  S
C808        C809   1.383       .  A
C808        H811   1.082       .  S
N812        C817   1.354       .  A
N812       C1185   1.353   1_554  A
N812        H844   1.039       .  S
N813        C820   1.350       .  A
N813       C2297   1.353       .  A
N814        C819   1.352       .  A
N814       C1187   1.353   1_554  A
N814        H845   1.032       .  S
N815        C822   1.348       .  A
N815       C2299   1.348       .  A
C816       N1181   1.353       .  A
C816        C824   1.388       .  A
C816        C832   1.414       .  A
C817        C833   1.416       .  A
C817        C825   1.388       .  A
C818       N1183   1.352       .  A
C818        C826   1.387       .  A
C818        C835   1.423       .  A
C819        C834   1.420       .  A
C819        C827   1.388       .  A
C820        C832   1.418       .  A
C820        C828   1.388       .  A
C821       N2289   1.352   1_455  A
C821        C835   1.414       .  A
C821        C829   1.386   1_455  A
C822        C830   1.385       .  A
C822        C833   1.405       .  A
C823       N2291   1.351   1_455  A
C823        C831   1.386       .  A
C823        C834   1.411       .  A
C824       C1194   1.368       .  A
C824        H836   1.081       .  S
C825       C1193   1.370   1_554  A
C825        H837   1.081       .  S
C826       C1196   1.371       .  A
C826        H838   1.078       .  S
C827       C1195   1.377   1_554  A
C827        H839   1.082       .  S
C828       C2305   1.374       .  A
C828        H840   1.082       .  S
C829       C2304   1.372       .  A
C829        H841   1.082   1_655  S
C830       C2307   1.369       .  A
C830        H842   1.082       .  S
C831       C2306   1.366   1_455  A
C831        H843   1.081       .  S
C832       C1093   1.482       .  S
C833       C1101   1.480       .  S
C834       C1104   1.483       .  S
C835       C1097   1.492       .  S
N846        N847   1.322       .  A
N846        N852   1.315       .  A
N846      Mn2351   2.211   1_455  S
N847        C854   1.353       .  A
N848        N850   1.315       .  A
N848        N849   1.325       .  A
N848       Mn864   2.214       .  S
N849        C855   1.356       .  A
N850        N851   1.317       .  A
N850       Mn875   2.189       .  S
N851        C855   1.347       .  A
N852        N853   1.324       .  A
N852      Mn2340   2.211   1_455  S
N853        C854   1.354       .  A
N856        N862   1.317       .  A
N856        N857   1.324       .  A
N856       Mn886   2.209       .  S
N857        C865   1.353       .  A
N858        N859   1.320       .  A
N858        N860   1.318       .  A
N858      Mn2340   2.201   1_455  S
N859        C866   1.348       .  A
N860        N861   1.323       .  A
N860      Mn2362   2.211   1_455  S
N861        C866   1.353       .  A
N862        N863   1.320       .  A
N862       Mn864   2.213       .  S
N863        C865   1.352       .  A
Mn864      N2328   2.218       .  S
Mn864      N2334   2.202       .  S
Mn864      Cl888   2.549       .  S
C865        C964   1.475       .  S
C866        C968   1.469       .  S
N867        N868   1.320       .  A
N867        N873   1.315       .  A
N867       Mn875   2.194       .  S
N868        C876   1.349       .  A
N869        N871   1.317       .  A
N869        N870   1.325       .  A
N869      Mn2363   2.216   1_455  S
N870        C877   1.355       .  A
N871        N872   1.318       .  A
N871      Mn2351   2.202   1_455  S
N872        C877   1.350       .  A
N873        N874   1.323       .  A
N873       Mn887   2.207       .  S
N874        C876   1.353       .  A
Mn875      N2322   2.200       .  S
Mn875      N2347   2.193       .  S
Mn875      Cl888   2.536       .  S
C876        C978   1.469       .  S
C877        C954   1.473       .  S
N878        N879   1.322       .  A
N878        N884   1.316       .  A
N878      Mn2362   2.209   1_455  S
N879        C889   1.352       .  A
N880        N881   1.320       .  A
N880        N882   1.317       .  A
N880       Mn887   2.211       .  S
N881        C890   1.350       .  A
N882        N883   1.322       .  A
N882       Mn886   2.205       .  S
N883        C890   1.352       .  A
N884        N885   1.320       .  A
N884      Mn2363   2.202   1_455  S
N885        C889   1.351       .  A
Mn886      N2336   2.198       .  S
Mn886      N2354   2.205       .  S
Mn886      Cl888   2.552       .  S
Mn887      N2345   2.223       .  S
Mn887      N2360   2.200       .  S
Mn887      Cl888   2.550       .  S
N891        C895   1.353       .  A
N891        C892   1.352       .  A
N891       C1088   1.433       .  S
C892       C1023   1.475       .  S
C892        C893   1.381       .  A
C893        C894   1.382       .  A
C893        H896   1.082       .  S
C894        C895   1.383       .  A
C894        H897   1.082       .  S
N898        C902   1.348       .  A
N898        C899   1.353       .  A
N898       C1085   1.437       .  S
C899        C900   1.383       .  A
C900        C901   1.381       .  A
C900        H903   1.082       .  S
C901        C902   1.381       .  A
C901        H904   1.082       .  S
C902       C1024   1.465       .  S
N905        C909   1.356       .  A
N905        C906   1.353       .  A
N905       C1080   1.438       .  S
C906        C907   1.381       .  A
C907        C908   1.376       .  A
C907        H910   1.082       .  S
C908        C909   1.381       .  A
C908        H911   1.083       .  S
C909       C1059   1.468       .  S
N912        C916   1.356       .  A
N912        C913   1.350       .  A
N912       C1076   1.433       .  S
C913       C1058   1.475       .  S
C913        C914   1.381       .  A
C914        C915   1.384       .  A
C914        H917   1.082       .  S
C915        C916   1.384       .  A
C915        H918   1.082       .  S
N919        C924   1.354       .  A
N919       C1292   1.356   1_554  A
N919        H951   1.040       .  S
N920        C928   1.350       .  A
N921        C926   1.352       .  A
N921       C1294   1.352   1_554  A
N921        H952   1.028       .  S
N922        C930   1.350       .  A
C923       N1288   1.353       .  A
C923        C931   1.388       .  A
C923        C939   1.414       .  A
C924        C940   1.413       .  A
C924        C932   1.386       .  A
C925       N1290   1.351       .  A
C925        C933   1.385       .  A
C925        C942   1.405       .  A
C926        C941   1.417       .  A
C926        C934   1.387       .  A
C927        C939   1.405       .  A
C927        C935   1.384       .  A
C928        C942   1.410       .  A
C928        C936   1.386       .  A
C929        C937   1.387       .  A
C929        C940   1.416       .  A
C930        C938   1.387       .  A
C930        C941   1.421       .  A
C931       C1301   1.370       .  A
C931        H943   1.080       .  S
C932       C1300   1.370   1_554  A
C932        H944   1.082       .  S
C933       C1303   1.370       .  A
C933        H945   1.082       .  S
C934       C1302   1.377   1_554  A
C934        H946   1.082       .  S
C935        H947   1.082       .  S
C936        H948   1.082       .  S
C937        H949   1.082       .  S
C938        H950   1.079       .  S
C939       C1081   1.482       .  S
C940       C1084   1.485       .  S
C941       C1089   1.490       .  S
C942       C1077   1.480       .  S
N953        C957   1.356       .  A
N953        C954   1.359       .  A
N953       C1072   1.440       .  S
C954        C955   1.382       .  A
C955        C956   1.376       .  A
C955        H958   1.083       .  S
C956        C957   1.381       .  A
C956        H959   1.083       .  S
C957       C1035   1.475       .  S
N960        C964   1.359       .  A
N960        C961   1.353       .  A
N960       C1068   1.437       .  S
C961       C1045   1.475       .  S
C961        C962   1.382       .  A
C962        C963   1.377       .  A
C962        H965   1.082       .  S
C963        C964   1.381       .  A
C963        H966   1.082       .  S
N967        C971   1.353       .  A
N967        C968   1.347       .  A
N967       C1064   1.432       .  S
C968        C969   1.381       .  A
C969        C970   1.385       .  A
C969        H972   1.082       .  S
C970        C971   1.384       .  A
C970        H973   1.082       .  S
C971       C1034   1.474       .  S
N974        C978   1.348       .  A
N974        C975   1.354       .  A
N974       C1060   1.433       .  S
C975       C1046   1.473       .  S
C975        C976   1.383       .  A
C976        C977   1.383       .  A
C976        H979   1.082       .  S
C977        C978   1.381       .  A
C977        H980   1.082       .  S
N981        C985   1.351   1_545  A
N981       H1013   1.042   1_545  S
N982        C989   1.350       .  A
N982       C2466   1.350       .  A
N983        C987   1.354       .  A
N983       H1014   1.042       .  S
N984        C991   1.349       .  A
N984       C2468   1.351       .  A
C985        C993   1.385       .  A
C985       C1001   1.405       .  A
C986       C1002   1.416       .  A
C986        C994   1.387       .  A
C987        C995   1.389       .  A
C987       C1004   1.416       .  A
C988       C1003   1.404       .  A
C988        C996   1.385       .  A
C989       C1001   1.410       .  A
C989        C997   1.387       .  A
C990       N2458   1.350   1_455  A
C990       C1004   1.407       .  A
C990        C998   1.385   1_455  A
C991        C999   1.385       .  A
C991       C1002   1.404       .  A
C992       N2460   1.349   1_455  A
C992       C1000   1.387       .  A
C992       C1003   1.409       .  A
C993       H1005   1.082       .  S
C994       H1006   1.079       .  S
C995       H1007   1.079       .  S
C996       H1008   1.082       .  S
C997       C2474   1.373       .  A
C997       H1009   1.082       .  S
C998       C2473   1.373       .  A
C998       H1010   1.082   1_655  S
C999       C2476   1.370       .  A
C999       H1011   1.082       .  S
C1000      C2475   1.372   1_455  A
C1000      H1012   1.082       .  S
C1001      C1061   1.481       .  S
C1002      C1069   1.482       .  S
C1003      C1065   1.478       .  S
C1004      C1073   1.485       .  S
N1015      N1016   1.321       .  A
N1015      N1021   1.316       .  A
N1016      C1023   1.351       .  A
N1017      N1019   1.315       .  A
N1017      N1018   1.321       .  A
N1017     Mn1033   2.202       .  S
N1018      C1024   1.352       .  A
N1019      N1020   1.320       .  A
N1019     Mn1044   2.199       .  S
N1020      C1024   1.349       .  A
N1021      N1022   1.323       .  A
N1022      C1023   1.353       .  A
N1025      N1031   1.316       .  A
N1025      N1026   1.323       .  A
N1025     Mn1055   2.213       .  S
N1026      C1034   1.353       .  A
N1027      N1028   1.318       .  A
N1027      N1029   1.317       .  A
N1028      C1035   1.349       .  A
N1029      N1030   1.326       .  A
N1030      C1035   1.356       .  A
N1031      N1032   1.322       .  A
N1031     Mn1033   2.210       .  S
N1032      C1034   1.352       .  A
Mn1033    Cl1057   2.548       .  S
N1036      N1037   1.317       .  A
N1036      N1042   1.315       .  A
N1036     Mn1044   2.195       .  S
N1037      C1045   1.348       .  A
N1038      N1040   1.314       .  A
N1038      N1039   1.321       .  A
N1038     Mn1056   2.198       .  S
N1039      C1046   1.351       .  A
N1040      N1041   1.322       .  A
N1041      C1046   1.353       .  A
N1042      N1043   1.327       .  A
N1043      C1045   1.357       .  A
Mn1044    Cl1057   2.538       .  S
N1047      N1048   1.323       .  A
N1047      N1053   1.318       .  A
N1048      C1058   1.354       .  A
N1049      N1050   1.316       .  A
N1049      N1051   1.317       .  A
N1050      C1059   1.348       .  A
N1051      N1052   1.325       .  A
N1051     Mn1055   2.210       .  S
N1052      C1059   1.354       .  A
N1053      N1054   1.322       .  A
N1053     Mn1056   2.207       .  S
N1054      C1058   1.350       .  A
Mn1055    Cl1057   2.558       .  S
C1060      C1061   1.337       .  D
C1060      H1062   1.088       .  S
C1061      H1063   1.084       .  S
C1064      C1065   1.336       .  D
C1064      H1066   1.088       .  S
C1065      H1067   1.084       .  S
C1068      C1069   1.338       .  D
C1068      H1070   1.086       .  S
C1069      H1071   1.085       .  S
C1072      C1073   1.342       .  D
C1072      H1074   1.086       .  S
C1073      H1075   1.084       .  S
C1076      C1077   1.337       .  D
C1076      H1078   1.088       .  S
C1077      H1079   1.084       .  S
C1080      C1081   1.340       .  D
C1080      H1082   1.086       .  S
C1081      H1083   1.084       .  S
C1084      C1085   1.339       .  D
C1084      H1086   1.083       .  S
C1085      H1087   1.087       .  S
C1088      C1089   1.344       .  D
C1088      H1090   1.087       .  S
C1089      H1091   1.085       .  S
C1092      C1093   1.336       .  D
C1092      H1094   1.088       .  S
C1093      H1095   1.086       .  S
C1096      C1097   1.344       .  D
C1096      H1098   1.087       .  S
C1097      H1099   1.085       .  S
C1100      C1101   1.340       .  D
C1100      H1102   1.086       .  S
C1101      H1103   1.085       .  S
C1104      C1105   1.337       .  D
C1104      H1106   1.085       .  S
C1105      H1107   1.087       .  S
N1108      N1109   1.317       .  A
N1108      N1114   1.315       .  A
N1108     Mn1137   2.199       .  S
N1109      C1116   1.349       .  A
N1110      N1112   1.315       .  A
N1110      N1111   1.323       .  A
N1110     Mn1126   2.205   1_556  S
N1111      C1117   1.352       .  A
N1112      N1113   1.322       .  A
N1113      C1117   1.353       .  A
N1114      N1115   1.324       .  A
N1115      C1116   1.354       .  A
C1116      C1161   1.470       .  S
C1117      C1178   1.474       .  S
N1118      N1124   1.317       .  A
N1118      N1119   1.324       .  A
N1118     Mn1148   2.211   1_556  S
N1119      C1127   1.354       .  A
N1120      N1121   1.319       .  A
N1120      N1122   1.316       .  A
N1121      C1128   1.350       .  A
N1122      N1123   1.323       .  A
N1123      C1128   1.353       .  A
N1124      N1125   1.318       .  A
N1124     Mn1126   2.198   1_556  S
N1125      C1127   1.349       .  A
C1127      C1275   1.470       .  S
C1128      C1268   1.469       .  S
N1129      N1130   1.320       .  A
N1129      N1135   1.316       .  A
N1130      C1138   1.350       .  A
N1131      N1133   1.315       .  A
N1131      N1132   1.326       .  A
N1131     Mn1149   2.209       .  S
N1132      C1139   1.355       .  A
N1133      N1134   1.319       .  A
N1133     Mn1137   2.210       .  S
N1134      C1139   1.351       .  A
N1135      N1136   1.321       .  A
N1136      C1138   1.352       .  A
Mn1137    Cl1150   2.537       .  S
C1138      C1285   1.468       .  S
C1139      C1264   1.477       .  S
N1140      N1141   1.322       .  A
N1140      N1146   1.317       .  A
N1141      C1151   1.352       .  A
N1142      N1143   1.320       .  A
N1142      N1144   1.316       .  A
N1143      C1152   1.351       .  A
N1144      N1145   1.322       .  A
N1144     Mn1148   2.199   1_556  S
N1145      C1152   1.351       .  A
N1146      N1147   1.320       .  A
N1146     Mn1149   2.210       .  S
N1147      C1151   1.351       .  A
Mn1149    Cl1150   2.556       .  S
C1151      C1154   1.469       .  S
C1152      C1171   1.467       .  S
N1153      C1157   1.349       .  A
N1153      C1154   1.352       .  A
N1153      C1474   1.433       .  S
C1154      C1155   1.383       .  A
C1155      C1156   1.382       .  A
C1155      H1158   1.082       .  S
C1156      C1157   1.381       .  A
C1156      H1159   1.082       .  S
C1157      C1223   1.469       .  S
N1160      C1164   1.358       .  A
N1160      C1161   1.353       .  A
N1160      C1469   1.439       .  S
C1161      C1162   1.381       .  A
C1162      C1163   1.376       .  A
C1162      H1165   1.081       .  S
C1163      C1164   1.381       .  A
C1163      H1166   1.082       .  S
C1164      C1224   1.472       .  S
N1167      C1171   1.351       .  A
N1167      C1168   1.352       .  A
N1167      C1465   1.436       .  S
C1168      C1258   1.471       .  S
C1168      C1169   1.381       .  A
C1169      C1170   1.382       .  A
C1169      H1172   1.082       .  S
C1170      C1171   1.383       .  A
C1170      H1173   1.082       .  S
N1174      C1178   1.355       .  A
N1174      C1175   1.349       .  A
N1174      C1461   1.434       .  S
C1175      C1259   1.471       .  S
C1175      C1176   1.381       .  A
C1176      C1177   1.384       .  A
C1176      H1179   1.082       .  S
C1177      C1178   1.384       .  A
C1177      H1180   1.082       .  S
N1181      C1186   1.358       .  A
N1181      H1213   1.040       .  S
N1182      C1189   1.350       .  A
N1182      C2666   1.352       .  A
N1183      C1188   1.354       .  A
N1183      H1214   1.031       .  S
N1184      C1191   1.347       .  A
N1184      C2668   1.347       .  A
C1185      C1193   1.387       .  A
C1185      C1201   1.411       .  A
C1186      C1202   1.416       .  A
C1186      C1194   1.386       .  A
C1187      C1195   1.388       .  A
C1187      C1204   1.417       .  A
C1188      C1203   1.416       .  A
C1188      C1196   1.386       .  A
C1189      C1201   1.415       .  A
C1189      C1197   1.387       .  A
C1190      N2658   1.351   1_455  A
C1190      C1204   1.421       .  A
C1190      C1198   1.385       .  A
C1191      C1199   1.384       .  A
C1191      C1202   1.403       .  A
C1192      N2660   1.349   1_455  A
C1192      C1200   1.387       .  A
C1192      C1203   1.415       .  A
C1193      H1205   1.082       .  S
C1194      H1206   1.081       .  S
C1195      H1207   1.082       .  S
C1196      H1208   1.081       .  S
C1197      C2674   1.373       .  A
C1197      H1209   1.082       .  S
C1198      C2673   1.368   1_455  A
C1198      H1210   1.077       .  S
C1199      C2676   1.369       .  A
C1199      H1211   1.081       .  S
C1200      C2675   1.370   1_455  A
C1200      H1212   1.081       .  S
C1201      C1462   1.481       .  S
C1202      C1470   1.485       .  S
C1203      C1473   1.489       .  S
C1204      C1466   1.493       .  S
N1215      N1216   1.320       .  A
N1215      N1221   1.315       .  A
N1215     Mn2720   2.199   1_455  S
N1216      C1223   1.350       .  A
N1217      N1219   1.316       .  A
N1217      N1218   1.324       .  A
N1217     Mn1233   2.211       .  S
N1218      C1224   1.353       .  A
N1219      N1220   1.319       .  A
N1219     Mn1244   2.205       .  S
N1220      C1224   1.351       .  A
N1221      N1222   1.322       .  A
N1221     Mn2709   2.205   1_455  S
N1222      C1223   1.352       .  A
N1225      N1231   1.316       .  A
N1225      N1226   1.324       .  A
N1225     Mn1255   2.213       .  S
N1226      C1234   1.354       .  A
N1227      N1228   1.322       .  A
N1227      N1229   1.316       .  A
N1227     Mn2709   2.214   1_455  S
N1228      C1235   1.354       .  A
N1229      N1230   1.321       .  A
N1229     Mn2731   2.201   1_455  S
N1230      C1235   1.350       .  A
N1231      N1232   1.320       .  A
N1231     Mn1233   2.207       .  S
N1232      C1234   1.351       .  A
Mn1233     N2697   2.210       .  S
Mn1233     N2703   2.215       .  S
Mn1233    Cl1257   2.552       .  S
C1234      C1333   1.476       .  S
C1235      C1337   1.472       .  S
N1236      N1237   1.322       .  A
N1236      N1242   1.315       .  A
N1236     Mn1244   2.206       .  S
N1237      C1245   1.352       .  A
N1238      N1240   1.316       .  A
N1238      N1239   1.326       .  A
N1238     Mn2732   2.222   1_455  S
N1239      C1246   1.357       .  A
N1240      N1241   1.318       .  A
N1240     Mn2720   2.197   1_455  S
N1241      C1246   1.349       .  A
N1242      N1243   1.321       .  A
N1242     Mn1256   2.199       .  S
N1243      C1245   1.351       .  A
Mn1244     N2691   2.199       .  S
Mn1244     N2716   2.206       .  S
Mn1244    Cl1257   2.540       .  S
C1245      C1347   1.470       .  S
C1246      C1323   1.477       .  S
N1247      N1248   1.321       .  A
N1247      N1253   1.317       .  A
N1247     Mn2731   2.207   1_455  S
N1248      C1258   1.350       .  A
N1249      N1250   1.322       .  A
N1249      N1251   1.318       .  A
N1249     Mn1256   2.212       .  S
N1250      C1259   1.351       .  A
N1251      N1252   1.322       .  A
N1251     Mn1255   2.212       .  S
N1252      C1259   1.352       .  A
N1253      N1254   1.323       .  A
N1253     Mn2732   2.213   1_455  S
N1254      C1258   1.353       .  A
Mn1255     N2705   2.220       .  S
Mn1255     N2723   2.208       .  S
Mn1255    Cl1257   2.557       .  S
Mn1256     N2714   2.226       .  S
Mn1256     N2729   2.197       .  S
Mn1256    Cl1257   2.552       .  S
N1260      C1264   1.355       .  A
N1260      C1261   1.358       .  A
N1260      C1457   1.437       .  S
C1261      C1392   1.475       .  S
C1261      C1262   1.381       .  A
C1262      C1263   1.377       .  A
C1262      H1265   1.083       .  S
C1263      C1264   1.381       .  A
C1263      H1266   1.081       .  S
N1267      C1271   1.347       .  A
N1267      C1268   1.352       .  A
N1267      C1454   1.433       .  S
C1268      C1269   1.383       .  A
C1269      C1270   1.383       .  A
C1269      H1272   1.082       .  S
C1270      C1271   1.381       .  A
C1270      H1273   1.082       .  S
C1271      C1393   1.466       .  S
N1274      C1278   1.356       .  A
N1274      C1275   1.352       .  A
N1274      C1449   1.438       .  S
C1275      C1276   1.381       .  A
C1276      C1277   1.376       .  A
C1276      H1279   1.082       .  S
C1277      C1278   1.381       .  A
C1277      H1280   1.082       .  S
C1278      C1428   1.469       .  S
N1281      C1285   1.349       .  A
N1281      C1282   1.355       .  A
N1281      C1445   1.436       .  S
C1282      C1427   1.472       .  S
C1282      C1283   1.384       .  A
C1283      C1284   1.383       .  A
C1283      H1286   1.082       .  S
C1284      C1285   1.380       .  A
C1284      H1287   1.082       .  S
N1288      C1293   1.352       .  A
N1288      H1320   1.041       .  S
N1289      C1297   1.352   1_545  A
N1290      C1295   1.351       .  A
N1290      H1321   1.041       .  S
N1291      C1299   1.349   1_545  A
C1292      C1300   1.388       .  A
C1292      C1308   1.418       .  A
C1293      C1309   1.407       .  A
C1293      C1301   1.385       .  A
C1294      C1302   1.388       .  A
C1294      C1311   1.420       .  A
C1295      C1310   1.414       .  A
C1295      C1303   1.390       .  A
C1296      C1308   1.404       .  A
C1296      C1304   1.385       .  A
C1297      C1311   1.411       .  A
C1297      C1305   1.386       .  A
C1298      C1306   1.387       .  A
C1298      C1309   1.410       .  A
C1299      C1307   1.386       .  A
C1299      C1310   1.407       .  A
C1300      H1312   1.080       .  S
C1301      H1313   1.081       .  S
C1302      H1314   1.082       .  S
C1303      H1315   1.080       .  S
C1304      H1316   1.082       .  S
C1305      H1317   1.082       .  S
C1306      H1318   1.082       .  S
C1307      H1319   1.082       .  S
C1308      C1450   1.481       .  S
C1309      C1453   1.481       .  S
C1310      C1458   1.479       .  S
C1311      C1446   1.483       .  S
N1322      C1326   1.358       .  A
N1322      C1323   1.355       .  A
N1322      C1441   1.438       .  S
C1323      C1324   1.382       .  A
C1324      C1325   1.378       .  A
C1324      H1327   1.082       .  S
C1325      C1326   1.382       .  A
C1325      H1328   1.083       .  S
C1326      C1404   1.475       .  S
N1329      C1333   1.355       .  A
N1329      C1330   1.357       .  A
N1329      C1437   1.439       .  S
C1330      C1414   1.472       .  S
C1330      C1331   1.382       .  A
C1331      C1332   1.378       .  A
C1331      H1334   1.082       .  S
C1332      C1333   1.382       .  A
C1332      H1335   1.082       .  S
N1336      C1340   1.350       .  A
N1336      C1337   1.353       .  A
N1336      C1433   1.434       .  S
C1337      C1338   1.383       .  A
C1338      C1339   1.384       .  A
C1338      H1341   1.082       .  S
C1339      C1340   1.382       .  A
C1339      H1342   1.082       .  S
C1340      C1403   1.473       .  S
N1343      C1347   1.353       .  A
N1343      C1344   1.346       .  A
N1343      C1429   1.433       .  S
C1344      C1415   1.466       .  S
C1344      C1345   1.380       .  A
C1345      C1346   1.384       .  A
C1345      H1348   1.082       .  S
C1346      C1347   1.383       .  A
C1346      H1349   1.082       .  S
N1350      C1354   1.351       .  A
N1350      H1382   1.034       .  S
N1351      C1358   1.348       .  A
N1351      C2835   1.349       .  A
N1352      C1356   1.350   1_545  A
N1352      H1383   1.037       .  S
N1353      C1360   1.351       .  A
N1353      C2837   1.350       .  A
C1354      C1362   1.388       .  A
C1354      C1370   1.416       .  A
C1355      C1371   1.405       .  A
C1355      C1363   1.385       .  A
C1356      C1364   1.386       .  A
C1356      C1373   1.406       .  A
C1357      C1372   1.414       .  A
C1357      C1365   1.388       .  A
C1358      C1370   1.405       .  A
C1358      C1366   1.386       .  A
C1359      N2827   1.350   1_455  A
C1359      C1373   1.411       .  A
C1359      C1367   1.387       .  A
C1360      C1368   1.387       .  A
C1360      C1371   1.412       .  A
C1361      N2829   1.353   1_455  A
C1361      C1369   1.384       .  A
C1361      C1372   1.412       .  A
C1362      H1374   1.082       .  S
C1363      H1375   1.083       .  S
C1364      H1376   1.082       .  S
C1365      H1377   1.082       .  S
C1366      C2843   1.369       .  A
C1366      H1378   1.082       .  S
C1367      C2842   1.368   1_455  A
C1367      H1379   1.081       .  S
C1368      C2845   1.368       .  A
C1368      H1380   1.079       .  S
C1369      C2844   1.368   1_455  A
C1369      H1381   1.080       .  S
C1370      C1430   1.477       .  S
C1371      C1438   1.480       .  S
C1372      C1434   1.489       .  S
C1373      C1442   1.478       .  S
N1384      N1385   1.318       .  A
N1384      N1390   1.315       .  A
N1385      C1392   1.349       .  A
N1386      N1388   1.315       .  A
N1386      N1387   1.321       .  A
N1386     Mn1402   2.200       .  S
N1387      C1393   1.352       .  A
N1388      N1389   1.320       .  A
N1388     Mn1413   2.196       .  S
N1389      C1393   1.350       .  A
N1390      N1391   1.326       .  A
N1391      C1392   1.355       .  A
N1394      N1400   1.317       .  A
N1394      N1395   1.324       .  A
N1394     Mn1424   2.216       .  S
N1395      C1403   1.354       .  A
N1396      N1397   1.319       .  A
N1396      N1398   1.317       .  A
N1397      C1404   1.349       .  A
N1398      N1399   1.325       .  A
N1399      C1404   1.355       .  A
N1400      N1401   1.320       .  A
N1400     Mn1402   2.203       .  S
N1401      C1403   1.349       .  A
Mn1402    Cl1426   2.543       .  S
N1405      N1406   1.317       .  A
N1405      N1411   1.314       .  A
N1405     Mn1413   2.190       .  S
N1406      C1414   1.348       .  A
N1407      N1409   1.315       .  A
N1407      N1408   1.321       .  A
N1407     Mn1425   2.208       .  S
N1408      C1415   1.352       .  A
N1409      N1410   1.320       .  A
N1410      C1415   1.349       .  A
N1411      N1412   1.325       .  A
N1412      C1414   1.355       .  A
Mn1413    Cl1426   2.536       .  S
N1416      N1417   1.323       .  A
N1416      N1422   1.317       .  A
N1417      C1427   1.354       .  A
N1418      N1419   1.318       .  A
N1418      N1420   1.317       .  A
N1419      C1428   1.349       .  A
N1420      N1421   1.324       .  A
N1420     Mn1424   2.209       .  S
N1421      C1428   1.353       .  A
N1422      N1423   1.321       .  A
N1422     Mn1425   2.209       .  S
N1423      C1427   1.351       .  A
Mn1424    Cl1426   2.555       .  S
C1429      C1430   1.335       .  D
C1429      H1431   1.087       .  S
C1430      H1432   1.084       .  S
C1433      C1434   1.342       .  D
C1433      H1435   1.087       .  S
C1434      H1436   1.084       .  S
C1437      C1438   1.341       .  D
C1437      H1439   1.086       .  S
C1438      H1440   1.083       .  S
C1441      C1442   1.341       .  D
C1441      H1443   1.086       .  S
C1442      H1444   1.083       .  S
C1445      C1446   1.338       .  D
C1445      H1447   1.087       .  S
C1446      H1448   1.084       .  S
C1449      C1450   1.339       .  D
C1449      H1451   1.086       .  S
C1450      H1452   1.084       .  S
C1453      C1454   1.338       .  D
C1453      H1455   1.084       .  S
C1454      H1456   1.088       .  S
C1457      C1458   1.339       .  D
C1457      H1459   1.087       .  S
C1458      H1460   1.084       .  S
C1461      C1462   1.337       .  D
C1461      H1463   1.087       .  S
C1462      H1464   1.084       .  S
C1465      C1466   1.346       .  D
C1465      H1467   1.087       .  S
C1466      H1468   1.085       .  S
C1469      C1470   1.340       .  D
C1469      H1471   1.086       .  S
C1470      H1472   1.084       .  S
C1473      C1474   1.343       .  D
C1473      H1475   1.085       .  S
C1474      H1476   1.087       .  S
N1477      N1478   1.317       .  A
N1477      N1483   1.315       .  A
N1477     Mn1506   2.192       .  S
N1478      C1485   1.348       .  A
N1479      N1481   1.315       .  A
N1479      N1480   1.320       .  A
N1479     Mn1495   2.194       .  S
N1480      C1486   1.349       .  A
N1481      N1482   1.321       .  A
N1481     Mn1875   2.204       .  S
N1482      C1486   1.352       .  A
N1483      N1484   1.324       .  A
N1483     Mn1864   2.213       .  S
N1484      C1485   1.354       .  A
C1485      C1530   1.469       .  S
C1486      C1547   1.466       .  S
N1487      N1493   1.317       .  A
N1487      N1488   1.323       .  A
N1487     Mn1517   2.203       .  S
N1488      C1496   1.352       .  A
N1489      N1490   1.320       .  A
N1489      N1491   1.317       .  A
N1489     Mn1864   2.204       .  S
N1490      C1497   1.350       .  A
N1491      N1492   1.322       .  A
N1491     Mn1886   2.210       .  S
N1492      C1497   1.353       .  A
N1493      N1494   1.320       .  A
N1493     Mn1495   2.214       .  S
N1494      C1496   1.352       .  A
Mn1495     N1852   2.213       .  S
Mn1495     N1858   2.197       .  S
Mn1495    Cl1888   2.550       .  S
C1496      C1644   1.473       .  S
C1497      C1637   1.470       .  S
N1498      N1499   1.320       .  A
N1498      N1504   1.315       .  A
N1498     Mn1875   2.200       .  S
N1499      C1507   1.351       .  A
N1500      N1502   1.316       .  A
N1500      N1501   1.323       .  A
N1500     Mn1518   2.210       .  S
N1501      C1508   1.352       .  A
N1502      N1503   1.322       .  A
N1502     Mn1506   2.210       .  S
N1503      C1508   1.352       .  A
N1504      N1505   1.322       .  A
N1504     Mn1887   2.206       .  S
N1505      C1507   1.352       .  A
Mn1506     N1850   2.217   1_554  S
Mn1506     N1867   2.199   1_554  S
Mn1506    Cl1519   2.549       .  S
C1507      C1654   1.469       .  S
C1508      C1633   1.473       .  S
N1509      N1510   1.325       .  A
N1509      N1515   1.316       .  A
N1509     Mn1886   2.226       .  S
N1510      C1520   1.355       .  A
N1511      N1512   1.319       .  A
N1511      N1513   1.316       .  A
N1511     Mn1887   2.198       .  S
N1512      C1521   1.349       .  A
N1513      N1514   1.323       .  A
N1513     Mn1517   2.212       .  S
N1514      C1521   1.354       .  A
N1515      N1516   1.320       .  A
N1515     Mn1518   2.202       .  S
N1516      C1520   1.351       .  A
Mn1517     N1860   2.204       .  S
Mn1517     N1878   2.210       .  S
Mn1517    Cl1888   2.551       .  S
Mn1518     N1873   2.204   1_554  S
Mn1518     N1880   2.204   1_554  S
Mn1518    Cl1519   2.546       .  S
Cl1519    Mn1864   2.546       .  S
Cl1519    Mn1886   2.558       .  S
C1520      C1523   1.476       .  S
C1521      C1540   1.470       .  S
N1522      C1526   1.349       .  A
N1522      C1523   1.354       .  A
N1522      C1843   1.431       .  S
C1523      C1524   1.384       .  A
C1524      C1525   1.383       .  A
C1524      H1527   1.082       .  S
C1525      C1526   1.380       .  A
C1525      H1528   1.082       .  S
C1526      C1592   1.472       .  S
N1529      C1533   1.357       .  A
N1529      C1530   1.353       .  A
N1529      C1838   1.441       .  S
C1530      C1531   1.382       .  A
C1531      C1532   1.376       .  A
C1531      H1534   1.083       .  S
C1532      C1533   1.382       .  A
C1532      H1535   1.082       .  S
C1533      C1593   1.468       .  S
N1536      C1540   1.352       .  A
N1536      C1537   1.352       .  A
N1536      C1834   1.434       .  S
C1537      C1627   1.475       .  S
C1537      C1538   1.381       .  A
C1538      C1539   1.383       .  A
C1538      H1541   1.082       .  S
C1539      C1540   1.383       .  A
C1539      H1542   1.082       .  S
N1543      C1547   1.349       .  A
N1543      C1544   1.353       .  A
N1543      C1830   1.436       .  S
C1544      C1628   1.467       .  S
C1544      C1545   1.384       .  A
C1545      C1546   1.381       .  A
C1545      H1548   1.082       .  S
C1546      C1547   1.380       .  A
C1546      H1549   1.082       .  S
N1550      C1555   1.356       .  A
N1550      C1923   1.352   1_554  A
N1550      H1582   1.039       .  S
N1551      C1558   1.353       .  A
N1552      C1557   1.354       .  A
N1552      C1925   1.353   1_554  A
N1552      H1583   1.034       .  S
N1553      C1560   1.350       .  A
C1554      N1919   1.350       .  A
C1554      C1562   1.387       .  A
C1554      C1570   1.414       .  A
C1555      C1571   1.417       .  A
C1555      C1563   1.388       .  A
C1556      N1921   1.354       .  A
C1556      C1564   1.387       .  A
C1556      C1573   1.417       .  A
C1557      C1572   1.413       .  A
C1557      C1565   1.384       .  A
C1558      C1570   1.412       .  A
C1558      C1566   1.384       .  A
C1559      C1573   1.420       .  A
C1559      C1567   1.386       .  A
C1560      C1568   1.385       .  A
C1560      C1571   1.408       .  A
C1561      C1569   1.387       .  A
C1561      C1572   1.413       .  A
C1562      C1932   1.376       .  A
C1562      H1574   1.082       .  S
C1563      C1931   1.370   1_554  A
C1563      H1575   1.081       .  S
C1564      C1934   1.377       .  A
C1564      H1576   1.082       .  S
C1565      C1933   1.367   1_554  A
C1565      H1577   1.079       .  S
C1566      H1578   1.080       .  S
C1567      H1579   1.078       .  S
C1568      H1580   1.082       .  S
C1569      H1581   1.082       .  S
C1570      C1831   1.489       .  S
C1571      C1839   1.485       .  S
C1572      C1842   1.486       .  S
C1573      C1835   1.493       .  S
N1584      N1585   1.320       .  A
N1584      N1590   1.314       .  A
N1585      C1592   1.350       .  A
N1586      N1588   1.314       .  A
N1586      N1587   1.324       .  A
N1586     Mn1602   2.206       .  S
N1587      C1593   1.354       .  A
N1588      N1589   1.317       .  A
N1588     Mn1613   2.189       .  S
N1589      C1593   1.348       .  A
N1590      N1591   1.322       .  A
N1591      C1592   1.353       .  A
N1594      N1600   1.317       .  A
N1594      N1595   1.324       .  A
N1594     Mn1624   2.213       .  S
N1595      C1603   1.353       .  A
N1596      N1597   1.320       .  A
N1596      N1598   1.317       .  A
N1597      C1604   1.348       .  A
N1598      N1599   1.323       .  A
N1599      C1604   1.354       .  A
N1600      N1601   1.319       .  A
N1600     Mn1602   2.206       .  S
N1601      C1603   1.351       .  A
Mn1602    Cl1626   2.551       .  S
C1603      C1702   1.473       .  S
C1604      C1706   1.470       .  S
N1605      N1606   1.319       .  A
N1605      N1611   1.316       .  A
N1605     Mn1613   2.195       .  S
N1606      C1614   1.348       .  A
N1607      N1609   1.314       .  A
N1607      N1608   1.325       .  A
N1608      C1615   1.355       .  A
N1609      N1610   1.316       .  A
N1610      C1615   1.347       .  A
N1611      N1612   1.324       .  A
N1611     Mn1625   2.218       .  S
N1612      C1614   1.355       .  A
Mn1613    Cl1626   2.530       .  S
C1614      C1716   1.471       .  S
C1615      C1692   1.467       .  S
N1616      N1617   1.322       .  A
N1616      N1622   1.318       .  A
N1617      C1627   1.352       .  A
N1618      N1619   1.319       .  A
N1618      N1620   1.316       .  A
N1618     Mn1625   2.203       .  S
N1619      C1628   1.350       .  A
N1620      N1621   1.323       .  A
N1620     Mn1624   2.205       .  S
N1621      C1628   1.352       .  A
N1622      N1623   1.323       .  A
N1623      C1627   1.353       .  A
Mn1624    Cl1626   2.550       .  S
Mn1625    Cl1626   2.554       .  S
N1629      C1633   1.351       .  A
N1629      C1630   1.349       .  A
N1629      C1826   1.432       .  S
C1630      C1761   1.469       .  S
C1630      C1631   1.383       .  A
C1631      C1632   1.384       .  A
C1631      H1634   1.082       .  S
C1632      C1633   1.382       .  A
C1632      H1635   1.082       .  S
N1636      C1640   1.348       .  A
N1636      C1637   1.355       .  A
N1636      C1823   1.434       .  S
C1637      C1638   1.383       .  A
C1638      C1639   1.381       .  A
C1638      H1641   1.082       .  S
C1639      C1640   1.380       .  A
C1639      H1642   1.082       .  S
C1640      C1762   1.468       .  S
N1643      C1647   1.355       .  A
N1643      C1644   1.359       .  A
N1643      C1818   1.439       .  S
C1644      C1645   1.381       .  A
C1645      C1646   1.377       .  A
C1645      H1648   1.082       .  S
C1646      C1647   1.382       .  A
C1646      H1649   1.082       .  S
C1647      C1797   1.476       .  S
N1650      C1654   1.354       .  A
N1650      C1651   1.348       .  A
N1650      C1814   1.436       .  S
C1651      C1796   1.468       .  S
C1651      C1652   1.381       .  A
C1652      C1653   1.383       .  A
C1652      H1655   1.082       .  S
C1653      C1654   1.384       .  A
C1653      H1656   1.082       .  S
N1657      C1662   1.351       .  A
N1657      C2030   1.353   1_554  A
N1657      H1689   1.041       .  S
N1658      C2403   1.349       .  A
N1658      C1666   1.350       .  A
N1659      C1664   1.354       .  A
N1659      C2032   1.356   1_554  A
N1659      H1690   1.035       .  S
N1660      C2405   1.351       .  A
N1660      C1668   1.350       .  A
C1661      N2026   1.349       .  A
C1661      C1669   1.387       .  A
C1661      C1677   1.408       .  A
C1662      C1678   1.407       .  A
C1662      C1670   1.385       .  A
C1663      N2028   1.351       .  A
C1663      C1671   1.385       .  A
C1663      C1680   1.406       .  A
C1664      C1679   1.421       .  A
C1664      C1672   1.386       .  A
C1665      N2396   1.351       .  A
C1665      C1677   1.414       .  A
C1665      C1673   1.388       .  A
C1666      C1680   1.411       .  A
C1666      C1674   1.387       .  A
C1667      N2398   1.349       .  A
C1667      C1675   1.387       .  A
C1667      C1678   1.410       .  A
C1668      C1676   1.387       .  A
C1668      C1679   1.412       .  A
C1669      C2039   1.378       .  A
C1669      H1681   1.083       .  S
C1670      C2038   1.371   1_554  A
C1670      H1682   1.082       .  S
C1671      C2041   1.372       .  A
C1671      H1683   1.082       .  S
C1672      C2040   1.366   1_554  A
C1672      H1684   1.074       .  S
C1673      C2412   1.368   1_545  A
C1673      H1685   1.079       .  S
C1674      C2411   1.373       .  A
C1674      H1686   1.082       .  S
C1675      C2414   1.373   1_545  A
C1675      H1687   1.082       .  S
C1676      C2413   1.374       .  A
C1676      H1688   1.082       .  S
C1677      C1819   1.481       .  S
C1678      C1822   1.481       .  S
C1679      C1827   1.487       .  S
C1680      C1815   1.483       .  S
N1691      C1695   1.355       .  A
N1691      C1692   1.356       .  A
N1691      C1810   1.441       .  S
C1692      C1693   1.381       .  A
C1693      C1694   1.375       .  A
C1693      H1696   1.082       .  S
C1694      C1695   1.381       .  A
C1694      H1697   1.083       .  S
C1695      C1773   1.470       .  S
N1698      C1702   1.358       .  A
N1698      C1699   1.355       .  A
N1698      C1806   1.440       .  S
C1699      C1783   1.474       .  S
C1699      C1700   1.381       .  A
C1700      C1701   1.377       .  A
C1700      H1703   1.082       .  S
C1701      C1702   1.382       .  A
C1701      H1704   1.082       .  S
N1705      C1709   1.354       .  A
N1705      C1706   1.347       .  A
N1705      C1802   1.433       .  S
C1706      C1707   1.381       .  A
C1707      C1708   1.383       .  A
C1707      H1710   1.082       .  S
C1708      C1709   1.384       .  A
C1708      H1711   1.082       .  S
C1709      C1772   1.472       .  S
N1712      C1716   1.349       .  A
N1712      C1713   1.355       .  A
N1712      C1798   1.436       .  S
C1713      C1784   1.472       .  S
C1713      C1714   1.384       .  A
C1714      C1715   1.383       .  A
C1714      H1717   1.083       .  S
C1715      C1716   1.382       .  A
C1715      H1718   1.082       .  S
N1719      C2462   1.353       .  A
N1719      C1723   1.353       .  A
N1719      H1751   1.042       .  S
N1720      C1727   1.350       .  A
N1721      C2464   1.351       .  A
N1721      C1725   1.351       .  A
N1721      H1752   1.041       .  S
N1722      C1729   1.350       .  A
C1723      C1731   1.385       .  A
C1723      C1739   1.407       .  A
C1724      N2457   1.353       .  A
C1724      C1740   1.415       .  A
C1724      C1732   1.389       .  A
C1725      C1733   1.391       .  A
C1725      C1742   1.414       .  A
C1726      N2459   1.350   1_545  A
C1726      C1741   1.405       .  A
C1726      C1734   1.386       .  A
C1727      C1739   1.412       .  A
C1727      C1735   1.387       .  A
C1728      C1742   1.410       .  A
C1728      C1736   1.385       .  A
C1729      C1737   1.385       .  A
C1729      C1740   1.408       .  A
C1730      C1738   1.387       .  A
C1730      C1741   1.412       .  A
C1731      C2470   1.371       .  A
C1731      H1743   1.082       .  S
C1732      C2469   1.370   1_545  A
C1732      H1744   1.080       .  S
C1733      C2472   1.368       .  A
C1733      H1745   1.080       .  S
C1734      C2471   1.372   1_545  A
C1734      H1746   1.082       .  S
C1735      H1747   1.082       .  S
C1736      H1748   1.082       .  S
C1737      H1749   1.082       .  S
C1738      H1750   1.082       .  S
C1739      C1799   1.485       .  S
C1740      C1807   1.484       .  S
C1741      C1803   1.479       .  S
C1742      C1811   1.483       .  S
N1753      N1754   1.321       .  A
N1753      N1759   1.316       .  A
N1753     Mn2520   2.203       .  S
N1754      C1761   1.351       .  A
N1755      N1757   1.316       .  A
N1755      N1756   1.323       .  A
N1755     Mn1771   2.220   1_545  S
N1756      C1762   1.355       .  A
N1757      N1758   1.319       .  A
N1757     Mn1782   2.188   1_545  S
N1758      C1762   1.348       .  A
N1759      N1760   1.322       .  A
N1759     Mn2509   2.204       .  S
N1760      C1761   1.351       .  A
N1763      N1769   1.316       .  A
N1763      N1764   1.322       .  A
N1763     Mn1793   2.210   1_545  S
N1764      C1772   1.353       .  A
N1765      N1766   1.318       .  A
N1765      N1767   1.316       .  A
N1765     Mn2509   2.200       .  S
N1766      C1773   1.350       .  A
N1767      N1768   1.323       .  A
N1767     Mn2531   2.205       .  S
N1768      C1773   1.353       .  A
N1769      N1770   1.321       .  A
N1769     Mn1771   2.205   1_545  S
N1770      C1772   1.352       .  A
Mn1771     N2497   2.198       .  S
Mn1771     N2503   2.219       .  S
Mn1771    Cl1795   2.552       .  S
N1774      N1775   1.318       .  A
N1774      N1780   1.315       .  A
N1774     Mn1782   2.195   1_545  S
N1775      C1783   1.349       .  A
N1776      N1778   1.315       .  A
N1776      N1777   1.321       .  A
N1776     Mn1794   2.203       .  S
N1777      C1784   1.351       .  A
N1778      N1779   1.322       .  A
N1778     Mn2520   2.208       .  S
N1779      C1784   1.353       .  A
N1780      N1781   1.325       .  A
N1780     Mn2532   2.212   1_545  S
N1781      C1783   1.355       .  A
Mn1782     N2491   2.196       .  S
Mn1782     N2516   2.194       .  S
Mn1782    Cl1795   2.537       .  S
N1785      N1786   1.321       .  A
N1785      N1791   1.317       .  A
N1785     Mn2531   2.204       .  S
N1786      C1796   1.351       .  A
N1787      N1788   1.318       .  A
N1787      N1789   1.317       .  A
N1787     Mn2532   2.199   1_545  S
N1788      C1797   1.349       .  A
N1789      N1790   1.326       .  A
N1789     Mn1793   2.224   1_545  S
N1790      C1797   1.356       .  A
N1791      N1792   1.321       .  A
N1791     Mn1794   2.205       .  S
N1792      C1796   1.350       .  A
Mn1793     N2505   2.217       .  S
Mn1793     N2523   2.208       .  S
Mn1793    Cl1795   2.556       .  S
Mn1794     N2518   2.214       .  S
Mn1794     N2525   2.201       .  S
Mn1794    Cl2533   2.539       .  S
Cl1795    Mn2532   2.551       .  S
C1798      C1799   1.339       .  D
C1798      H1800   1.087       .  S
C1799      H1801   1.083       .  S
C1802      C1803   1.335       .  D
C1802      H1804   1.088       .  S
C1803      H1805   1.083       .  S
C1806      C1807   1.342       .  D
C1806      H1808   1.086       .  S
C1807      H1809   1.083       .  S
C1810      C1811   1.344       .  D
C1810      H1812   1.086       .  S
C1811      H1813   1.083       .  S
C1814      C1815   1.339       .  D
C1814      H1816   1.087       .  S
C1815      H1817   1.083       .  S
C1818      C1819   1.340       .  D
C1818      H1820   1.086       .  S
C1819      H1821   1.083       .  S
C1822      C1823   1.337       .  D
C1822      H1824   1.083       .  S
C1823      H1825   1.088       .  S
C1826      C1827   1.343       .  D
C1826      H1828   1.087       .  S
C1827      H1829   1.086       .  S
C1830      C1831   1.342       .  D
C1830      H1832   1.087       .  S
C1831      H1833   1.084       .  S
C1834      C1835   1.345       .  D
C1834      H1836   1.087       .  S
C1835      H1837   1.085       .  S
C1838      C1839   1.341       .  D
C1838      H1840   1.086       .  S
C1839      H1841   1.084       .  S
C1842      C1843   1.339       .  D
C1842      H1844   1.085       .  S
C1843      H1845   1.088       .  S
N1846      N1847   1.319       .  A
N1846      N1852   1.315       .  A
N1846     Mn1875   2.201       .  S
N1847      C1854   1.350       .  A
N1848      N1850   1.316       .  A
N1848      N1849   1.323       .  A
N1848     Mn1864   2.212   1_556  S
N1849      C1855   1.353       .  A
N1850      N1851   1.323       .  A
N1851      C1855   1.354       .  A
N1852      N1853   1.325       .  A
N1853      C1854   1.355       .  A
C1854      C1899   1.475       .  S
C1855      C1916   1.479       .  S
N1856      N1862   1.317       .  A
N1856      N1857   1.325       .  A
N1856     Mn1886   2.217   1_556  S
N1857      C1865   1.354       .  A
N1858      N1859   1.321       .  A
N1858      N1860   1.316       .  A
N1859      C1866   1.350       .  A
N1860      N1861   1.320       .  A
N1861      C1866   1.350       .  A
N1862      N1863   1.319       .  A
N1862     Mn1864   2.209   1_556  S
N1863      C1865   1.352       .  A
C1865      C2013   1.478       .  S
C1866      C2006   1.465       .  S
N1867      N1868   1.320       .  A
N1867      N1873   1.315       .  A
N1868      C1876   1.351       .  A
N1869      N1871   1.315       .  A
N1869      N1870   1.324       .  A
N1869     Mn1887   2.202       .  S
N1870      C1877   1.353       .  A
N1871      N1872   1.318       .  A
N1871     Mn1875   2.195       .  S
N1872      C1877   1.349       .  A
N1873      N1874   1.322       .  A
N1874      C1876   1.351       .  A
Mn1875    Cl1888   2.534       .  S
C1876      C2023   1.468       .  S
C1877      C2002   1.469       .  S
N1878      N1879   1.322       .  A
N1878      N1884   1.317       .  A
N1879      C1889   1.352       .  A
N1880      N1881   1.322       .  A
N1880      N1882   1.317       .  A
N1881      C1890   1.351       .  A
N1882      N1883   1.323       .  A
N1882     Mn1886   2.217   1_556  S
N1883      C1890   1.353       .  A
N1884      N1885   1.320       .  A
N1884     Mn1887   2.201       .  S
N1885      C1889   1.350       .  A
Mn1887    Cl1888   2.550       .  S
C1889      C1892   1.469       .  S
C1890      C1909   1.474       .  S
N1891      C1895   1.354       .  A
N1891      C1892   1.348       .  A
N1891      C2212   1.434       .  S
C1892      C1893   1.381       .  A
C1893      C1894   1.383       .  A
C1893      H1896   1.082       .  S
C1894      C1895   1.384       .  A
C1894      H1897   1.082       .  S
C1895      C1961   1.473       .  S
N1898      C1902   1.354       .  A
N1898      C1899   1.357       .  A
N1898      C2207   1.437       .  S
C1899      C1900   1.380       .  A
C1900      C1901   1.376       .  A
C1900      H1903   1.077       .  S
C1901      C1902   1.380       .  A
C1901      H1904   1.082       .  S
C1902      C1962   1.472       .  S
N1905      C1909   1.352       .  A
N1905      C1906   1.353       .  A
N1905      C2203   1.433       .  S
C1906      C1996   1.474       .  S
C1906      C1907   1.383       .  A
C1907      C1908   1.383       .  A
C1907      H1910   1.082       .  S
C1908      C1909   1.381       .  A
C1908      H1911   1.082       .  S
N1912      C1916   1.356       .  A
N1912      C1913   1.350       .  A
N1912      C2199   1.433       .  S
C1913      C1997   1.474       .  S
C1913      C1914   1.381       .  A
C1914      C1915   1.385       .  A
C1914      H1917   1.082       .  S
C1915      C1916   1.384       .  A
C1915      H1918   1.082       .  S
N1919      C1924   1.349       .  A
N1919      H1951   1.036       .  S
N1920      C1927   1.349       .  A
N1921      C1926   1.351       .  A
N1921      H1952   1.031       .  S
N1922      C1929   1.351       .  A
C1923      C1931   1.387       .  A
C1923      C1939   1.412       .  A
C1924      C1940   1.407       .  A
C1924      C1932   1.386       .  A
C1925      C1933   1.386       .  A
C1925      C1942   1.421       .  A
C1926      C1941   1.419       .  A
C1926      C1934   1.388       .  A
C1927      C1939   1.416       .  A
C1927      C1935   1.387       .  A
C1928      C1942   1.411       .  A
C1928      C1936   1.386       .  A
C1929      C1937   1.387       .  A
C1929      C1940   1.412       .  A
C1930      C1938   1.386       .  A
C1930      C1941   1.412       .  A
C1931      H1943   1.082       .  S
C1932      H1944   1.082       .  S
C1933      H1945   1.074       .  S
C1934      H1946   1.082       .  S
C1935      H1947   1.082       .  S
C1936      H1948   1.082       .  S
C1937      H1949   1.080       .  S
C1938      H1950   1.081       .  S
C1939      C2200   1.480       .  S
C1940      C2208   1.477       .  S
C1941      C2211   1.481       .  S
C1942      C2204   1.489       .  S
N1953      N1954   1.321       .  A
N1953      N1959   1.316       .  A
N1954      C1961   1.351       .  A
N1955      N1957   1.316       .  A
N1955      N1956   1.325       .  A
N1955     Mn1971   2.214       .  S
N1956      C1962   1.355       .  A
N1957      N1958   1.317       .  A
N1957     Mn1982   2.193       .  S
N1958      C1962   1.349       .  A
N1959      N1960   1.323       .  A
N1960      C1961   1.353       .  A
N1963      N1969   1.316       .  A
N1963      N1964   1.322       .  A
N1963     Mn1993   2.212       .  S
N1964      C1972   1.352       .  A
N1965      N1966   1.322       .  A
N1965      N1967   1.317       .  A
N1966      C1973   1.353       .  A
N1967      N1968   1.323       .  A
N1968      C1973   1.352       .  A
N1969      N1970   1.321       .  A
N1969     Mn1971   2.204       .  S
N1970      C1972   1.351       .  A
Mn1971    Cl1995   2.551       .  S
C1972      C2071   1.471       .  S
C1973      C2075   1.474       .  S
N1974      N1975   1.321       .  A
N1974      N1980   1.314       .  A
N1974     Mn1982   2.198       .  S
N1975      C1983   1.351       .  A
N1976      N1978   1.316       .  A
N1976      N1977   1.324       .  A
N1977      C1984   1.355       .  A
N1978      N1979   1.318       .  A
N1979      C1984   1.350       .  A
N1980      N1981   1.320       .  A
N1980     Mn1994   2.195       .  S
N1981      C1983   1.351       .  A
Mn1982    Cl1995   2.541       .  S
C1983      C2085   1.467       .  S
C1984      C2061   1.473       .  S
N1985      N1986   1.324       .  A
N1985      N1991   1.317       .  A
N1986      C1996   1.355       .  A
N1987      N1988   1.322       .  A
N1987      N1989   1.317       .  A
N1987     Mn1994   2.212       .  S
N1988      C1997   1.351       .  A
N1989      N1990   1.323       .  A
N1989     Mn1993   2.211       .  S
N1990      C1997   1.353       .  A
N1991      N1992   1.320       .  A
N1992      C1996   1.351       .  A
Mn1993    Cl1995   2.553       .  S
Mn1994    Cl1995   2.548       .  S
N1998      C2002   1.352       .  A
N1998      C1999   1.357       .  A
N1998      C2195   1.440       .  S
C1999      C2130   1.468       .  S
C1999      C2000   1.381       .  A
C2000      C2001   1.376       .  A
C2000      H2003   1.082       .  S
C2001      C2002   1.379       .  A
C2001      H2004   1.078       .  S
N2005      C2009   1.353       .  A
N2005      C2006   1.347       .  A
N2005      C2192   1.434       .  S
C2006      C2007   1.380       .  A
C2007      C2008   1.382       .  A
C2007      H2010   1.082       .  S
C2008      C2009   1.384       .  A
C2008      H2011   1.082       .  S
C2009      C2131   1.470       .  S
N2012      C2016   1.360       .  A
N2012      C2013   1.357       .  A
N2012      C2187   1.439       .  S
C2013      C2014   1.381       .  A
C2014      C2015   1.376       .  A
C2014      H2017   1.082       .  S
C2015      C2016   1.381       .  A
C2015      H2018   1.082       .  S
C2016      C2166   1.476       .  S
N2019      C2023   1.353       .  A
N2019      C2020   1.349       .  A
N2019      C2183   1.435       .  S
C2020      C2165   1.469       .  S
C2020      C2021   1.381       .  A
C2021      C2022   1.382       .  A
C2021      H2024   1.082       .  S
C2022      C2023   1.383       .  A
C2022      H2025   1.083       .  S
N2026      C2031   1.349       .  A
N2026      H2058   1.037       .  S
N2027      C2772   1.346       .  A
N2027      C2035   1.348       .  A
N2028      C2033   1.352       .  A
N2028      H2059   1.042       .  S
N2029      C2774   1.349       .  A
N2029      C2037   1.349       .  A
C2030      C2038   1.389       .  A
C2030      C2046   1.415       .  A
C2031      C2047   1.413       .  A
C2031      C2039   1.388       .  A
C2032      C2040   1.382       .  A
C2032      C2049   1.413       .  A
C2033      C2048   1.416       .  A
C2033      C2041   1.390       .  A
C2034      N2765   1.350   1_545  A
C2034      C2046   1.406       .  A
C2034      C2042   1.385       .  A
C2035      C2049   1.410       .  A
C2035      C2043   1.386       .  A
C2036      N2767   1.352   1_545  A
C2036      C2044   1.384       .  A
C2036      C2047   1.408       .  A
C2037      C2045   1.386       .  A
C2037      C2048   1.406       .  A
C2038      H2050   1.080       .  S
C2039      H2051   1.082       .  S
C2040      H2052   1.077       .  S
C2041      H2053   1.080       .  S
C2042      C2781   1.372   1_545  A
C2042      H2054   1.082       .  S
C2043      C2780   1.372       .  A
C2043      H2055   1.082       .  S
C2044      C2783   1.367   1_545  A
C2044      H2056   1.081       .  S
C2045      C2782   1.374       .  A
C2045      H2057   1.082       .  S
C2046      C2188   1.483       .  S
C2047      C2191   1.481       .  S
C2048      C2196   1.483       .  S
C2049      C2184   1.488       .  S
N2060      C2064   1.357       .  A
N2060      C2061   1.355       .  A
N2060      C2179   1.439       .  S
C2061      C2062   1.381       .  A
C2062      C2063   1.377       .  A
C2062      H2065   1.083       .  S
C2063      C2064   1.382       .  A
C2063      H2066   1.083       .  S
C2064      C2142   1.471       .  S
N2067      C2071   1.352       .  A
N2067      C2068   1.353       .  A
N2067      C2175   1.435       .  S
C2068      C2152   1.468       .  S
C2068      C2069   1.383       .  A
C2069      C2070   1.381       .  A
C2069      H2072   1.082       .  S
C2070      C2071   1.380       .  A
C2070      H2073   1.082       .  S
N2074      C2078   1.348       .  A
N2074      C2075   1.353       .  A
N2074      C2171   1.431       .  S
C2075      C2076   1.383       .  A
C2076      C2077   1.384       .  A
C2076      H2079   1.082       .  S
C2077      C2078   1.381       .  A
C2077      H2080   1.082       .  S
C2078      C2141   1.472       .  S
N2081      C2085   1.353       .  A
N2081      C2082   1.347       .  A
N2081      C2167   1.436       .  S
C2082      C2153   1.465       .  S
C2082      C2083   1.381       .  A
C2083      C2084   1.382       .  A
C2083      H2086   1.082       .  S
C2084      C2085   1.383       .  A
C2084      H2087   1.082       .  S
N2088      C2831   1.350       .  A
N2088      C2092   1.349       .  A
N2088      H2120   1.039       .  S
N2089      C2096   1.350   1_455  A
N2090      C2833   1.349       .  A
N2090      C2094   1.350       .  A
N2090      H2121   1.037       .  S
N2091      C2098   1.351       .  A
C2092      C2100   1.389       .  A
C2092      C2108   1.416       .  A
C2093      N2826   1.351   1_545  A
C2093      C2109   1.412       .  A
C2093      C2101   1.386       .  A
C2094      C2102   1.385       .  A
C2094      C2111   1.406       .  A
C2095      N2828   1.348       .  A
C2095      C2110   1.410       .  A
C2095      C2103   1.388       .  A
C2096      C2108   1.410       .  A
C2096      C2104   1.386       .  A
C2097      C2111   1.412       .  A
C2097      C2105   1.387       .  A
C2098      C2106   1.385       .  A
C2098      C2109   1.419       .  A
C2099      C2107   1.382       .  A
C2099      C2110   1.408       .  A
C2100      C2839   1.377       .  A
C2100      H2112   1.082       .  S
C2101      C2838   1.378   1_545  A
C2101      H2113   1.082       .  S
C2102      C2841   1.378       .  A
C2102      H2114   1.083       .  S
C2103      C2840   1.376   1_545  A
C2103      H2115   1.082       .  S
C2104      H2116   1.081       .  S
C2105      H2117   1.079       .  S
C2106      H2118   1.078       .  S
C2107      H2119   1.078       .  S
C2108      C2168   1.479       .  S
C2109      C2176   1.491       .  S
C2110      C2172   1.481       .  S
C2111      C2180   1.482       .  S
N2122      N2123   1.319       .  A
N2122      N2128   1.314       .  A
N2122     Mn2889   2.200       .  S
N2123      C2130   1.350       .  A
N2124      N2126   1.315       .  A
N2124      N2125   1.323       .  A
N2124     Mn2140   2.210   1_545  S
N2125      C2131   1.353       .  A
N2126      N2127   1.320       .  A
N2126     Mn2151   2.200   1_545  S
N2127      C2131   1.350       .  A
N2128      N2129   1.323       .  A
N2128     Mn2878   2.200       .  S
N2129      C2130   1.352       .  A
N2132      N2138   1.317       .  A
N2132      N2133   1.323       .  A
N2132     Mn2162   2.211   1_545  S
N2133      C2141   1.353       .  A
N2134      N2135   1.317       .  A
N2134      N2136   1.317       .  A
N2134     Mn2878   2.194       .  S
N2135      C2142   1.348       .  A
N2136      N2137   1.325       .  A
N2136     Mn2900   2.218       .  S
N2137      C2142   1.355       .  A
N2138      N2139   1.321       .  A
N2138     Mn2140   2.205   1_545  S
N2139      C2141   1.350       .  A
Mn2140     N2866   2.206       .  S
Mn2140     N2872   2.207       .  S
Mn2140    Cl2164   2.545       .  S
N2143      N2144   1.320       .  A
N2143      N2149   1.315       .  A
N2143     Mn2151   2.204   1_545  S
N2144      C2152   1.352       .  A
N2145      N2147   1.315       .  A
N2145      N2146   1.321       .  A
N2145     Mn2163   2.207       .  S
N2146      C2153   1.353       .  A
N2147      N2148   1.320       .  A
N2147     Mn2889   2.192       .  S
N2148      C2153   1.348       .  A
N2149      N2150   1.322       .  A
N2149     Mn2901   2.202   1_545  S
N2150      C2152   1.352       .  A
Mn2151     N2860   2.194       .  S
Mn2151     N2885   2.199       .  S
Mn2151    Cl2164   2.539       .  S
N2154      N2155   1.322       .  A
N2154      N2160   1.316       .  A
N2154     Mn2900   2.217       .  S
N2155      C2165   1.353       .  A
N2156      N2157   1.319       .  A
N2156      N2158   1.317       .  A
N2156     Mn2901   2.210   1_545  S
N2157      C2166   1.351       .  A
N2158      N2159   1.326       .  A
N2158     Mn2162   2.214   1_545  S
N2159      C2166   1.355       .  A
N2160      N2161   1.320       .  A
N2160     Mn2163   2.196       .  S
N2161      C2165   1.349       .  A
Mn2162     N2874   2.217       .  S
Mn2162     N2892   2.208       .  S
Mn2162    Cl2164   2.561       .  S
Mn2163     N2887   2.192       .  S
Mn2163     N2894   2.210       .  S
Mn2163    Cl2902   2.542       .  S
Cl2164    Mn2901   2.543       .  S
C2167      C2168   1.337       .  D
C2167      H2169   1.088       .  S
C2168      H2170   1.082       .  S
C2171      C2172   1.338       .  D
C2171      H2173   1.088       .  S
C2172      H2174   1.085       .  S
C2175      C2176   1.344       .  D
C2175      H2177   1.087       .  S
C2176      H2178   1.085       .  S
C2179      C2180   1.341       .  D
C2179      H2181   1.086       .  S
C2180      H2182   1.084       .  S
C2183      C2184   1.341       .  D
C2183      H2185   1.087       .  S
C2184      H2186   1.085       .  S
C2187      C2188   1.341       .  D
C2187      H2189   1.086       .  S
C2188      H2190   1.084       .  S
C2191      C2192   1.338       .  D
C2191      H2193   1.084       .  S
C2192      H2194   1.088       .  S
C2195      C2196   1.340       .  D
C2195      H2197   1.087       .  S
C2196      H2198   1.083       .  S
C2199      C2200   1.336       .  D
C2199      H2201   1.087       .  S
C2200      H2202   1.084       .  S
C2203      C2204   1.341       .  D
C2203      H2205   1.087       .  S
C2204      H2206   1.086       .  S
C2207      C2208   1.340       .  D
C2207      H2209   1.086       .  S
C2208      H2210   1.084       .  S
C2211      C2212   1.337       .  D
C2211      H2213   1.084       .  S
C2212      H2214   1.087       .  S
N2215      N2216   1.320       .  A
N2215      N2221   1.316       .  A
N2215     Mn2244   2.207       .  S
N2216      C2223   1.351       .  A
N2217      N2219   1.314       .  A
N2217      N2218   1.323       .  A
N2217     Mn2233   2.211       .  S
N2218      C2224   1.354       .  A
N2219      N2220   1.320       .  A
N2219     Mn2613   2.195       .  S
N2220      C2224   1.350       .  A
N2221      N2222   1.324       .  A
N2221     Mn2602   2.209       .  S
N2222      C2223   1.354       .  A
C2223      C2268   1.475       .  S
C2224      C2285   1.470       .  S
N2225      N2231   1.317       .  A
N2225      N2226   1.323       .  A
N2225     Mn2255   2.201       .  S
N2226      C2234   1.351       .  A
N2227      N2228   1.321       .  A
N2227      N2229   1.316       .  A
N2227     Mn2602   2.212       .  S
N2228      C2235   1.353       .  A
N2229      N2230   1.322       .  A
N2229     Mn2624   2.209       .  S
N2230      C2235   1.353       .  A
N2231      N2232   1.319       .  A
N2231     Mn2233   2.212       .  S
N2232      C2234   1.352       .  A
Mn2233     N2590   2.225       .  S
Mn2233     N2596   2.206       .  S
Mn2233    Cl2626   2.548       .  S
C2234      C2382   1.471       .  S
C2235      C2375   1.473       .  S
N2236      N2237   1.321       .  A
N2236      N2242   1.316       .  A
N2236     Mn2613   2.206       .  S
N2237      C2245   1.351       .  A
N2238      N2240   1.315       .  A
N2238      N2239   1.325       .  A
N2238     Mn2256   2.216       .  S
N2239      C2246   1.355       .  A
N2240      N2241   1.317       .  A
N2240     Mn2244   2.191       .  S
N2241      C2246   1.348       .  A
N2242      N2243   1.321       .  A
N2242     Mn2625   2.202       .  S
N2243      C2245   1.351       .  A
Mn2244     N2588   2.203   1_554  S
Mn2244     N2605   2.197   1_554  S
Mn2244    Cl2257   2.537       .  S
C2245      C2392   1.468       .  S
C2246      C2371   1.470       .  S
N2247      N2248   1.323       .  A
N2247      N2253   1.318       .  A
N2247     Mn2624   2.219       .  S
N2248      C2258   1.353       .  A
N2249      N2250   1.321       .  A
N2249      N2251   1.316       .  A
N2249     Mn2625   2.206       .  S
N2250      C2259   1.351       .  A
N2251      N2252   1.321       .  A
N2251     Mn2255   2.200       .  S
N2252      C2259   1.350       .  A
N2253      N2254   1.321       .  A
N2253     Mn2256   2.209       .  S
N2254      C2258   1.351       .  A
Mn2255     N2598   2.201       .  S
Mn2255     N2616   2.203       .  S
Mn2255    Cl2626   2.556       .  S
Mn2256     N2611   2.208   1_554  S
Mn2256     N2618   2.208   1_554  S
Mn2256    Cl2257   2.556       .  S
Cl2257    Mn2602   2.554       .  S
Cl2257    Mn2624   2.553       .  S
C2258      C2261   1.475       .  S
C2259      C2278   1.468       .  S
N2260      C2264   1.350       .  A
N2260      C2261   1.353       .  A
N2260      C2581   1.431       .  S
C2261      C2262   1.383       .  A
C2262      C2263   1.385       .  A
C2262      H2265   1.082       .  S
C2263      C2264   1.382       .  A
C2263      H2266   1.082       .  S
C2264      C2330   1.476       .  S
N2267      C2271   1.355       .  A
N2267      C2268   1.357       .  A
N2267      C2576   1.436       .  S
C2268      C2269   1.380       .  A
C2269      C2270   1.378       .  A
C2269      H2272   1.079       .  S
C2270      C2271   1.381       .  A
C2270      H2273   1.082       .  S
C2271      C2331   1.475       .  S
N2274      C2278   1.351       .  A
N2274      C2275   1.352       .  A
N2274      C2572   1.436       .  S
C2275      C2365   1.465       .  S
C2275      C2276   1.383       .  A
C2276      C2277   1.380       .  A
C2276      H2279   1.082       .  S
C2277      C2278   1.380       .  A
C2277      H2280   1.082       .  S
N2281      C2285   1.353       .  A
N2281      C2282   1.348       .  A
N2281      C2568   1.436       .  S
C2282      C2366   1.467       .  S
C2282      C2283   1.381       .  A
C2283      C2284   1.383       .  A
C2283      H2286   1.082       .  S
C2284      C2285   1.384       .  A
C2284      H2287   1.082       .  S
N2288      C2293   1.350   1_556  A
N2288      C2661   1.350       .  A
N2288      H2320   1.037       .  S
N2289      C2296   1.349       .  A
N2290      C2295   1.354       .  A
N2290      C2663   1.351   1_554  A
N2290      H2321   1.030       .  S
N2291      C2298   1.352       .  A
C2292      N2657   1.353       .  A
C2292      C2300   1.386       .  A
C2292      C2308   1.412       .  A
C2293      C2309   1.406       .  A
C2293      C2301   1.385       .  A
C2294      N2659   1.352       .  A
C2294      C2302   1.388       .  A
C2294      C2311   1.423       .  A
C2295      C2310   1.414       .  A
C2295      C2303   1.385       .  A
C2296      C2308   1.416       .  A
C2296      C2304   1.387       .  A
C2297      C2311   1.418       .  A
C2297      C2305   1.387       .  A
C2298      C2306   1.386       .  A
C2298      C2309   1.413       .  A
C2299      C2307   1.386       .  A
C2299      C2310   1.414       .  A
C2300      C2670   1.370       .  A
C2300      H2312   1.082       .  S
C2301      C2669   1.374   1_554  A
C2301      H2313   1.082       .  S
C2302      C2672   1.373       .  A
C2302      H2314   1.080       .  S
C2303      C2671   1.370   1_554  A
C2303      H2315   1.080       .  S
C2304      H2316   1.081       .  S
C2305      H2317   1.081       .  S
C2306      H2318   1.080       .  S
C2307      H2319   1.081       .  S
C2308      C2569   1.482       .  S
C2309      C2577   1.481       .  S
C2310      C2580   1.487       .  S
C2311      C2573   1.495       .  S
N2322      N2323   1.322       .  A
N2322      N2328   1.315       .  A
N2323      C2330   1.351       .  A
N2324      N2326   1.315       .  A
N2324      N2325   1.325       .  A
N2324     Mn2340   2.212       .  S
N2325      C2331   1.355       .  A
N2326      N2327   1.319       .  A
N2326     Mn2351   2.202       .  S
N2327      C2331   1.351       .  A
N2328      N2329   1.323       .  A
N2329      C2330   1.354       .  A
N2332      N2338   1.316       .  A
N2332      N2333   1.326       .  A
N2332     Mn2362   2.215       .  S
N2333      C2341   1.355       .  A
N2334      N2335   1.320       .  A
N2334      N2336   1.317       .  A
N2335      C2342   1.350       .  A
N2336      N2337   1.320       .  A
N2337      C2342   1.349       .  A
N2338      N2339   1.318       .  A
N2338     Mn2340   2.202       .  S
N2339      C2341   1.350       .  A
Mn2340    Cl2364   2.549       .  S
C2341      C2440   1.475       .  S
C2342      C2444   1.463       .  S
N2343      N2344   1.321       .  A
N2343      N2349   1.315       .  A
N2343     Mn2351   2.200       .  S
N2344      C2352   1.350       .  A
N2345      N2347   1.315       .  A
N2345      N2346   1.327       .  A
N2346      C2353   1.357       .  A
N2347      N2348   1.318       .  A
N2348      C2353   1.349       .  A
N2349      N2350   1.320       .  A
N2349     Mn2363   2.192       .  S
N2350      C2352   1.349       .  A
Mn2351    Cl2364   2.537       .  S
C2352      C2454   1.464       .  S
C2353      C2430   1.477       .  S
N2354      N2355   1.322       .  A
N2354      N2360   1.317       .  A
N2355      C2365   1.351       .  A
N2356      N2357   1.322       .  A
N2356      N2358   1.317       .  A
N2356     Mn2363   2.211       .  S
N2357      C2366   1.352       .  A
N2358      N2359   1.320       .  A
N2358     Mn2362   2.200       .  S
N2359      C2366   1.350       .  A
N2360      N2361   1.319       .  A
N2361      C2365   1.350       .  A
Mn2362    Cl2364   2.556       .  S
Mn2363    Cl2364   2.553       .  S
N2367      C2371   1.354       .  A
N2367      C2368   1.358       .  A
N2367      C2564   1.441       .  S
C2368      C2499   1.466       .  S
C2368      C2369   1.380       .  A
C2369      C2370   1.373       .  A
C2369      H2372   1.083       .  S
C2370      C2371   1.380       .  A
C2370      H2373   1.079       .  S
N2374      C2378   1.349       .  A
N2374      C2375   1.357       .  A
N2374      C2561   1.439       .  S
C2375      C2376   1.384       .  A
C2376      C2377   1.381       .  A
C2376      H2379   1.082       .  S
C2377      C2378   1.380       .  A
C2377      H2380   1.082       .  S
C2378      C2500   1.467       .  S
N2381      C2385   1.358       .  A
N2381      C2382   1.355       .  A
N2381      C2556   1.443       .  S
C2382      C2383   1.381       .  A
C2383      C2384   1.375       .  A
C2383      H2386   1.082       .  S
C2384      C2385   1.381       .  A
C2384      H2387   1.083       .  S
C2385      C2535   1.467       .  S
N2388      C2392   1.349       .  A
N2388      C2389   1.355       .  A
N2388      C2552   1.437       .  S
C2389      C2534   1.471       .  S
C2389      C2390   1.383       .  A
C2390      C2391   1.382       .  A
C2390      H2393   1.082       .  S
C2391      C2392   1.380       .  A
C2391      H2394   1.082       .  S
N2395      C2400   1.352       .  A
N2395      C2768   1.353   1_554  A
N2395      H2427   1.041       .  S
N2396      C2404   1.351   1_545  A
N2397      C2402   1.354       .  A
N2397      C2770   1.352   1_554  A
N2397      H2428   1.042       .  S
N2398      C2406   1.349   1_545  A
C2399      N2764   1.354       .  A
C2399      C2407   1.389       .  A
C2399      C2415   1.416       .  A
C2400      C2416   1.407       .  A
C2400      C2408   1.385       .  A
C2401      N2766   1.350       .  A
C2401      C2409   1.388       .  A
C2401      C2418   1.413       .  A
C2402      C2417   1.416       .  A
C2402      C2410   1.389       .  A
C2403      C2415   1.407       .  A
C2403      C2411   1.386       .  A
C2404      C2418   1.407       .  A
C2404      C2412   1.384       .  A
C2405      C2413   1.386       .  A
C2405      C2416   1.412       .  A
C2406      C2414   1.385       .  A
C2406      C2417   1.405       .  A
C2407      C2777   1.371       .  A
C2407      H2419   1.080       .  S
C2408      C2776   1.371   1_554  A
C2408      H2420   1.082       .  S
C2409      C2779   1.377       .  A
C2409      H2421   1.082       .  S
C2410      C2778   1.372   1_554  A
C2410      H2422   1.080       .  S
C2411      H2423   1.082       .  S
C2412      H2424   1.081       .  S
C2413      H2425   1.082       .  S
C2414      H2426   1.083       .  S
C2415      C2557   1.486       .  S
C2416      C2560   1.484       .  S
C2417      C2565   1.486       .  S
C2418      C2553   1.482       .  S
N2429      C2433   1.357       .  A
N2429      C2430   1.360       .  A
N2429      C2548   1.440       .  S
C2430      C2431   1.383       .  A
C2431      C2432   1.378       .  A
C2431      H2434   1.083       .  S
C2432      C2433   1.381       .  A
C2432      H2435   1.082       .  S
C2433      C2511   1.480       .  S
N2436      C2440   1.359       .  A
N2436      C2437   1.354       .  A
N2436      C2544   1.438       .  S
C2437      C2521   1.475       .  S
C2437      C2438   1.381       .  A
C2438      C2439   1.377       .  A
C2438      H2441   1.082       .  S
C2439      C2440   1.382       .  A
C2439      H2442   1.082       .  S
N2443      C2447   1.350       .  A
N2443      C2444   1.344       .  A
N2443      C2540   1.432       .  S
C2444      C2445   1.380       .  A
C2445      C2446   1.384       .  A
C2445      H2448   1.082       .  S
C2446      C2447   1.383       .  A
C2446      H2449   1.082       .  S
C2447      C2510   1.466       .  S
N2450      C2454   1.346       .  A
N2450      C2451   1.352       .  A
N2450      C2536   1.434       .  S
C2451      C2522   1.468       .  S
C2451      C2452   1.384       .  A
C2452      C2453   1.383       .  A
C2452      H2455   1.082       .  S
C2453      C2454   1.380       .  A
C2453      H2456   1.082       .  S
N2457      C2461   1.352   1_545  A
N2457      H2489   1.041   1_545  S
N2458      C2465   1.350       .  A
N2459      C2463   1.352       .  A
N2459      H2490   1.042       .  S
N2460      C2467   1.348       .  A
C2461      C2469   1.385       .  A
C2461      C2477   1.406       .  A
C2462      C2478   1.415       .  A
C2462      C2470   1.389       .  A
C2463      C2471   1.389       .  A
C2463      C2480   1.413       .  A
C2464      C2479   1.401       .  A
C2464      C2472   1.383       .  A
C2465      C2477   1.411       .  A
C2465      C2473   1.387       .  A
C2466      C2480   1.406       .  A
C2466      C2474   1.385       .  A
C2467      C2475   1.386       .  A
C2467      C2478   1.404       .  A
C2468      C2476   1.385       .  A
C2468      C2479   1.408       .  A
C2469      H2481   1.082       .  S
C2470      H2482   1.080       .  S
C2471      H2483   1.081       .  S
C2472      H2484   1.083       .  S
C2473      H2485   1.082       .  S
C2474      H2486   1.082       .  S
C2475      H2487   1.083       .  S
C2476      H2488   1.081       .  S
C2477      C2537   1.481       .  S
C2478      C2545   1.480       .  S
C2479      C2541   1.477       .  S
C2480      C2549   1.484       .  S
N2491      N2492   1.317       .  A
N2491      N2497   1.315       .  A
N2492      C2499   1.350       .  A
N2493      N2495   1.315       .  A
N2493      N2494   1.321       .  A
N2493     Mn2509   2.205       .  S
N2494      C2500   1.352       .  A
N2495      N2496   1.321       .  A
N2495     Mn2520   2.199       .  S
N2496      C2500   1.350       .  A
N2497      N2498   1.323       .  A
N2498      C2499   1.352       .  A
N2501      N2507   1.316       .  A
N2501      N2502   1.321       .  A
N2501     Mn2531   2.200       .  S
N2502      C2510   1.351       .  A
N2503      N2504   1.321       .  A
N2503      N2505   1.318       .  A
N2504      C2511   1.353       .  A
N2505      N2506   1.325       .  A
N2506      C2511   1.353       .  A
N2507      N2508   1.320       .  A
N2507     Mn2509   2.206       .  S
N2508      C2510   1.351       .  A
Mn2509    Cl2533   2.539       .  S
N2512      N2513   1.318       .  A
N2512      N2518   1.315       .  A
N2512     Mn2520   2.196       .  S
N2513      C2521   1.349       .  A
N2514      N2516   1.315       .  A
N2514      N2515   1.323       .  A
N2514     Mn2532   2.212       .  S
N2515      C2522   1.353       .  A
N2516      N2517   1.319       .  A
N2517      C2522   1.349       .  A
N2518      N2519   1.326       .  A
N2519      C2521   1.355       .  A
Mn2520    Cl2533   2.544       .  S
N2523      N2524   1.322       .  A
N2523      N2529   1.316       .  A
N2524      C2534   1.352       .  A
N2525      N2526   1.317       .  A
N2525      N2527   1.316       .  A
N2526      C2535   1.349       .  A
N2527      N2528   1.324       .  A
N2527     Mn2531   2.201       .  S
N2528      C2535   1.352       .  A
N2529      N2530   1.320       .  A
N2529     Mn2532   2.205       .  S
N2530      C2534   1.351       .  A
Mn2531    Cl2533   2.562       .  S
C2536      C2537   1.338       .  D
C2536      H2538   1.088       .  S
C2537      H2539   1.084       .  S
C2540      C2541   1.336       .  D
C2540      H2542   1.087       .  S
C2541      H2543   1.085       .  S
C2544      C2545   1.339       .  D
C2544      H2546   1.087       .  S
C2545      H2547   1.083       .  S
C2548      C2549   1.342       .  D
C2548      H2550   1.086       .  S
C2549      H2551   1.083       .  S
C2552      C2553   1.339       .  D
C2552      H2554   1.087       .  S
C2553      H2555   1.083       .  S
C2556      C2557   1.343       .  D
C2556      H2558   1.086       .  S
C2557      H2559   1.083       .  S
C2560      C2561   1.337       .  D
C2560      H2562   1.083       .  S
C2561      H2563   1.087       .  S
C2564      C2565   1.341       .  D
C2564      H2566   1.086       .  S
C2565      H2567   1.083       .  S
C2568      C2569   1.338       .  D
C2568      H2570   1.087       .  S
C2569      H2571   1.083       .  S
C2572      C2573   1.346       .  D
C2572      H2574   1.087       .  S
C2573      H2575   1.085       .  S
C2576      C2577   1.340       .  D
C2576      H2578   1.086       .  S
C2577      H2579   1.084       .  S
C2580      C2581   1.342       .  D
C2580      H2582   1.085       .  S
C2581      H2583   1.087       .  S
N2584      N2585   1.320       .  A
N2584      N2590   1.316       .  A
N2584     Mn2613   2.208       .  S
N2585      C2592   1.351       .  A
N2586      N2588   1.315       .  A
N2586      N2587   1.323       .  A
N2586     Mn2602   2.212   1_556  S
N2587      C2593   1.353       .  A
N2588      N2589   1.322       .  A
N2589      C2593   1.352       .  A
N2590      N2591   1.327       .  A
N2591      C2592   1.356       .  A
C2592      C2637   1.481       .  S
C2593      C2654   1.475       .  S
N2594      N2600   1.317       .  A
N2594      N2595   1.326       .  A
N2594     Mn2624   2.221   1_556  S
N2595      C2603   1.356       .  A
N2596      N2597   1.320       .  A
N2596      N2598   1.316       .  A
N2597      C2604   1.351       .  A
N2598      N2599   1.322       .  A
N2599      C2604   1.352       .  A
N2600      N2601   1.319       .  A
N2600     Mn2602   2.201   1_556  S
N2601      C2603   1.350       .  A
C2603      C2751   1.477       .  S
C2604      C2744   1.468       .  S
N2605      N2606   1.319       .  A
N2605      N2611   1.315       .  A
N2606      C2614   1.350       .  A
N2607      N2609   1.315       .  A
N2607      N2608   1.325       .  A
N2607     Mn2625   2.206       .  S
N2608      C2615   1.354       .  A
N2609      N2610   1.317       .  A
N2609     Mn2613   2.198       .  S
N2610      C2615   1.350       .  A
N2611      N2612   1.322       .  A
N2612      C2614   1.353       .  A
Mn2613    Cl2626   2.538       .  S
C2614      C2761   1.469       .  S
C2615      C2740   1.471       .  S
N2616      N2617   1.321       .  A
N2616      N2622   1.317       .  A
N2617      C2627   1.351       .  A
N2618      N2619   1.322       .  A
N2618      N2620   1.317       .  A
N2619      C2628   1.351       .  A
N2620      N2621   1.322       .  A
N2620     Mn2624   2.208   1_556  S
N2621      C2628   1.351       .  A
N2622      N2623   1.320       .  A
N2622     Mn2625   2.207       .  S
N2623      C2627   1.351       .  A
Mn2625    Cl2626   2.552       .  S
C2627      C2630   1.468       .  S
C2628      C2647   1.471       .  S
N2629      C2633   1.349       .  A
N2629      C2630   1.351       .  A
N2629      C2950   1.432       .  S
C2630      C2631   1.382       .  A
C2631      C2632   1.383       .  A
C2631      H2634   1.082       .  S
C2632      C2633   1.381       .  A
C2632      H2635   1.082       .  S
C2633      C2699   1.470       .  S
N2636      C2640   1.361       .  A
N2636      C2637   1.356       .  A
N2636      C2945   1.439       .  S
C2637      C2638   1.381       .  A
C2638      C2639   1.378       .  A
C2638      H2641   1.080       .  S
C2639      C2640   1.381       .  A
C2639      H2642   1.083       .  S
C2640      C2700   1.477       .  S
N2643      C2647   1.351       .  A
N2643      C2644   1.351       .  A
N2643      C2941   1.433       .  S
C2644      C2734   1.466       .  S
C2644      C2645   1.382       .  A
C2645      C2646   1.381       .  A
C2645      H2648   1.082       .  S
C2646      C2647   1.381       .  A
C2646      H2649   1.082       .  S
N2650      C2654   1.351       .  A
N2650      C2651   1.354       .  A
N2650      C2937   1.433       .  S
C2651      C2735   1.475       .  S
C2651      C2652   1.384       .  A
C2652      C2653   1.384       .  A
C2652      H2655   1.082       .  S
C2653      C2654   1.381       .  A
C2653      H2656   1.082       .  S
N2657      C2662   1.356       .  A
N2657      H2689   1.039       .  S
N2658      C2665   1.352       .  A
N2659      C2664   1.354       .  A
N2659      H2690   1.029       .  S
N2660      C2667   1.349       .  A
C2661      C2669   1.388       .  A
C2661      C2677   1.414       .  A
C2662      C2678   1.418       .  A
C2662      C2670   1.388       .  A
C2663      C2671   1.388       .  A
C2663      C2680   1.423       .  A
C2664      C2679   1.416       .  A
C2664      C2672   1.386       .  A
C2665      C2677   1.411       .  A
C2665      C2673   1.384       .  A
C2666      C2680   1.414       .  A
C2666      C2674   1.386       .  A
C2667      C2675   1.385       .  A
C2667      C2678   1.407       .  A
C2668      C2676   1.387       .  A
C2668      C2679   1.415       .  A
C2669      H2681   1.082       .  S
C2670      H2682   1.081       .  S
C2671      H2683   1.078       .  S
C2672      H2684   1.081       .  S
C2673      H2685   1.079       .  S
C2674      H2686   1.082       .  S
C2675      H2687   1.082       .  S
C2676      H2688   1.080       .  S
C2677      C2938   1.487       .  S
C2678      C2946   1.485       .  S
C2679      C2949   1.486       .  S
C2680      C2942   1.490       .  S
N2691      N2692   1.320       .  A
N2691      N2697   1.315       .  A
N2692      C2699   1.350       .  A
N2693      N2695   1.316       .  A
N2693      N2694   1.325       .  A
N2693     Mn2709   2.213       .  S
N2694      C2700   1.354       .  A
N2695      N2696   1.320       .  A
N2695     Mn2720   2.208       .  S
N2696      C2700   1.352       .  A
N2697      N2698   1.322       .  A
N2698      C2699   1.353       .  A
N2701      N2707   1.316       .  A
N2701      N2702   1.322       .  A
N2701     Mn2731   2.207       .  S
N2702      C2710   1.352       .  A
N2703      N2704   1.322       .  A
N2703      N2705   1.317       .  A
N2704      C2711   1.352       .  A
N2705      N2706   1.324       .  A
N2706      C2711   1.355       .  A
N2707      N2708   1.320       .  A
N2707     Mn2709   2.204       .  S
N2708      C2710   1.350       .  A
Mn2709    Cl2733   2.558       .  S
C2710      C2809   1.468       .  S
C2711      C2813   1.480       .  S
N2712      N2713   1.320       .  A
N2712      N2718   1.316       .  A
N2712     Mn2720   2.199       .  S
N2713      C2721   1.350       .  A
N2714      N2716   1.316       .  A
N2714      N2715   1.327       .  A
N2715      C2722   1.357       .  A
N2716      N2717   1.320       .  A
N2717      C2722   1.350       .  A
N2718      N2719   1.324       .  A
N2718     Mn2732   2.216       .  S
N2719      C2721   1.355       .  A
Mn2720    Cl2733   2.534       .  S
C2721      C2823   1.472       .  S
C2722      C2799   1.481       .  S
N2723      N2724   1.322       .  A
N2723      N2729   1.316       .  A
N2724      C2734   1.352       .  A
N2725      N2726   1.322       .  A
N2725      N2727   1.317       .  A
N2725     Mn2732   2.217       .  S
N2726      C2735   1.353       .  A
N2727      N2728   1.323       .  A
N2727     Mn2731   2.206       .  S
N2728      C2735   1.352       .  A
N2729      N2730   1.319       .  A
N2730      C2734   1.350       .  A
Mn2731    Cl2733   2.546       .  S
Mn2732    Cl2733   2.558       .  S
N2736      C2740   1.358       .  A
N2736      C2737   1.355       .  A
N2736      C2933   1.439       .  S
C2737      C2868   1.470       .  S
C2737      C2738   1.380       .  A
C2738      C2739   1.374       .  A
C2738      H2741   1.083       .  S
C2739      C2740   1.380       .  A
C2739      H2742   1.080       .  S
N2743      C2747   1.350       .  A
N2743      C2744   1.354       .  A
N2743      C2930   1.438       .  S
C2744      C2745   1.383       .  A
C2745      C2746   1.380       .  A
C2745      H2748   1.082       .  S
C2746      C2747   1.380       .  A
C2746      H2749   1.082       .  S
C2747      C2869   1.466       .  S
N2750      C2754   1.360       .  A
N2750      C2751   1.355       .  A
N2750      C2925   1.437       .  S
C2751      C2752   1.381       .  A
C2752      C2753   1.378       .  A
C2752      H2755   1.082       .  S
C2753      C2754   1.382       .  A
C2753      H2756   1.082       .  S
C2754      C2904   1.479       .  S
N2757      C2761   1.353       .  A
N2757      C2758   1.349       .  A
N2757      C2921   1.434       .  S
C2758      C2903   1.468       .  S
C2758      C2759   1.380       .  A
C2759      C2760   1.381       .  A
C2759      H2762   1.082       .  S
C2760      C2761   1.383       .  A
C2760      H2763   1.082       .  S
N2764      C2769   1.353       .  A
N2764      H2796   1.042       .  S
N2765      C2773   1.349       .  A
N2766      C2771   1.348       .  A
N2766      H2797   1.037       .  S
N2767      C2775   1.353       .  A
C2768      C2776   1.389       .  A
C2768      C2784   1.414       .  A
C2769      C2785   1.408       .  A
C2769      C2777   1.384       .  A
C2770      C2778   1.385       .  A
C2770      C2787   1.408       .  A
C2771      C2786   1.406       .  A
C2771      C2779   1.386       .  A
C2772      C2784   1.404       .  A
C2772      C2780   1.386       .  A
C2773      C2787   1.411       .  A
C2773      C2781   1.388       .  A
C2774      C2782   1.387       .  A
C2774      C2785   1.410       .  A
C2775      C2783   1.387       .  A
C2775      C2786   1.415       .  A
C2776      H2788   1.082       .  S
C2777      H2789   1.082       .  S
C2778      H2790   1.082       .  S
C2779      H2791   1.083       .  S
C2780      H2792   1.082       .  S
C2781      H2793   1.082       .  S
C2782      H2794   1.082       .  S
C2783      H2795   1.079       .  S
C2784      C2926   1.477       .  S
C2785      C2929   1.485       .  S
C2786      C2934   1.482       .  S
C2787      C2922   1.483       .  S
N2798      C2802   1.358       .  A
N2798      C2799   1.354       .  A
N2798      C2917   1.435       .  S
C2799      C2800   1.383       .  A
C2800      C2801   1.381       .  A
C2800      H2803   1.082       .  S
C2801      C2802   1.382       .  A
C2801      H2804   1.082       .  S
C2802      C2880   1.478       .  S
N2805      C2809   1.351       .  A
N2805      C2806   1.351       .  A
N2805      C2913   1.435       .  S
C2806      C2890   1.464       .  S
C2806      C2807   1.382       .  A
C2807      C2808   1.381       .  A
C2807      H2810   1.082       .  S
C2808      C2809   1.381       .  A
C2808      H2811   1.082       .  S
N2812      C2816   1.350       .  A
N2812      C2813   1.357       .  A
N2812      C2909   1.433       .  S
C2813      C2814   1.384       .  A
C2814      C2815   1.384       .  A
C2814      H2817   1.082       .  S
C2815      C2816   1.381       .  A
C2815      H2818   1.082       .  S
C2816      C2879   1.476       .  S
N2819      C2823   1.355       .  A
N2819      C2820   1.348       .  A
N2819      C2905   1.435       .  S
C2820      C2891   1.468       .  S
C2820      C2821   1.380       .  A
C2821      C2822   1.383       .  A
C2821      H2824   1.082       .  S
C2822      C2823   1.384       .  A
C2822      H2825   1.082       .  S
N2826      C2830   1.351       .  A
N2826      H2858   1.034       .  S
N2827      C2834   1.349       .  A
N2828      C2832   1.349   1_545  A
N2828      H2859   1.036       .  S
N2829      C2836   1.351       .  A
C2830      C2838   1.388       .  A
C2830      C2846   1.417       .  A
C2831      C2847   1.413       .  A
C2831      C2839   1.387       .  A
C2832      C2840   1.386       .  A
C2832      C2849   1.405       .  A
C2833      C2848   1.413       .  A
C2833      C2841   1.389       .  A
C2834      C2846   1.407       .  A
C2834      C2842   1.386       .  A
C2835      C2849   1.409       .  A
C2835      C2843   1.387       .  A
C2836      C2844   1.386       .  A
C2836      C2847   1.420       .  A
C2837      C2845   1.384       .  A
C2837      C2848   1.406       .  A
C2838      H2850   1.082       .  S
C2839      H2851   1.082       .  S
C2840      H2852   1.082       .  S
C2841      H2853   1.082       .  S
C2842      H2854   1.082       .  S
C2843      H2855   1.081       .  S
C2844      H2856   1.079       .  S
C2845      H2857   1.081       .  S
C2846      C2906   1.479       .  S
C2847      C2914   1.491       .  S
C2848      C2910   1.480       .  S
C2849      C2918   1.474       .  S
N2860      N2861   1.317       .  A
N2860      N2866   1.315       .  A
N2861      C2868   1.349       .  A
N2862      N2864   1.315       .  A
N2862      N2863   1.320       .  A
N2862     Mn2878   2.193       .  S
N2863      C2869   1.350       .  A
N2864      N2865   1.321       .  A
N2864     Mn2889   2.205       .  S
N2865      C2869   1.352       .  A
N2866      N2867   1.324       .  A
N2867      C2868   1.354       .  A
N2870      N2876   1.317       .  A
N2870      N2871   1.324       .  A
N2870     Mn2900   2.224       .  S
N2871      C2879   1.355       .  A
N2872      N2873   1.320       .  A
N2872      N2874   1.317       .  A
N2873      C2880   1.351       .  A
N2874      N2875   1.325       .  A
N2875      C2880   1.354       .  A
N2876      N2877   1.321       .  A
N2876     Mn2878   2.198       .  S
N2877      C2879   1.349       .  A
Mn2878    Cl2902   2.544       .  S
N2881      N2882   1.320       .  A
N2881      N2887   1.315       .  A
N2881     Mn2889   2.203       .  S
N2882      C2890   1.352       .  A
N2883      N2885   1.315       .  A
N2883      N2884   1.321       .  A
N2883     Mn2901   2.203       .  S
N2884      C2891   1.351       .  A
N2885      N2886   1.321       .  A
N2886      C2891   1.351       .  A
N2887      N2888   1.320       .  A
N2888      C2890   1.349       .  A
Mn2889    Cl2902   2.539       .  S
N2892      N2893   1.322       .  A
N2892      N2898   1.316       .  A
N2893      C2903   1.352       .  A
N2894      N2895   1.320       .  A
N2894      N2896   1.317       .  A
N2895      C2904   1.351       .  A
N2896      N2897   1.326       .  A
N2896     Mn2900   2.220       .  S
N2897      C2904   1.355       .  A
N2898      N2899   1.320       .  A
N2898     Mn2901   2.199       .  S
N2899      C2903   1.350       .  A
Mn2900    Cl2902   2.560       .  S
C2905      C2906   1.335       .  D
C2905      H2907   1.088       .  S
C2906      H2908   1.083       .  S
C2909      C2910   1.336       .  D
C2909      H2911   1.088       .  S
C2910      H2912   1.083       .  S
C2913      C2914   1.345       .  D
C2913      H2915   1.087       .  S
C2914      H2916   1.085       .  S
C2917      C2918   1.339       .  D
C2917      H2919   1.087       .  S
C2918      H2920   1.083       .  S
C2921      C2922   1.339       .  D
C2921      H2923   1.087       .  S
C2922      H2924   1.083       .  S
C2925      C2926   1.338       .  D
C2925      H2927   1.087       .  S
C2926      H2928   1.083       .  S
C2929      C2930   1.341       .  D
C2929      H2931   1.083       .  S
C2930      H2932   1.087       .  S
C2933      C2934   1.339       .  D
C2933      H2935   1.086       .  S
C2934      H2936   1.084       .  S
C2937      C2938   1.342       .  D
C2937      H2939   1.087       .  S
C2938      H2940   1.084       .  S
C2941      C2942   1.344       .  D
C2941      H2943   1.087       .  S
C2942      H2944   1.085       .  S
C2945      C2946   1.341       .  D
C2945      H2947   1.086       .  S
C2946      H2948   1.084       .  S
C2949      C2950   1.342       .  D
C2949      H2951   1.085       .  S
C2950      H2952   1.087       .  S
