geometry optimzed in LAMMPS
_audit_creation_date              2020-11-30 
_audit_creation_method            'lammps2cif' 
_symmetry_space_group_name_H-M    'P1' 
_symmetry_Int_Tables_number       1 
_symmetry_cell_setting            triclinic 
loop_ 
_symmetry_equiv_pos_as_xyz 
  x,y,z 
_cell_length_a                    31.00587330029547 
_cell_length_b                    63.88978671352211 
_cell_length_c                    32.93474113376708 
_cell_angle_alpha                 95.51348767591428 
_cell_angle_beta                  84.55583975214641 
_cell_angle_gamma                 123.86289864340803 
loop_ 
_atom_site_label 
_atom_site_type_symbol 
_atom_site_fract_x 
_atom_site_fract_y 
_atom_site_fract_z 
_atom_site_charge 
O1          O  0.43554078  0.23788855  0.31660848    -0.74210
O2          O  0.37821000  0.24446250  0.29188201    -0.53120
C3          C  0.42404380  0.25220883  0.30293314     0.79520
O4          O  0.27946768  0.11801787  0.38521602    -0.58810
O5          O  0.25252796  0.12604974  0.44681709    -0.51840
C6          C  0.27602491  0.11760463  0.42465950     0.71530
O7          O  0.29235942  0.15088917  0.26866365    -0.73370
O8          O  0.30873784  0.18796551  0.24788273    -0.53940
C9          C  0.30620295  0.16694557  0.24138553     0.77530
O10         O  0.41608136  0.18968910  0.41691869    -0.58520
O11         O  0.36449071  0.18133398  0.47493035    -0.51640
C12         C  0.40862266  0.19012166  0.45549660     0.74120
Zr13       Zr  0.39177721  0.20649379  0.36813069     2.54710
O14         O  0.41954309  0.18522857  0.31789854    -0.79080
O15         O  0.48232032  0.23658231  0.38610666    -0.92500
Zr16       Zr  0.26310537  0.14184250  0.33971922     2.64680
O17         O  0.26939572  0.10933437  0.30003348    -0.97450
O18         O  0.17160310  0.10922958  0.33084174    -0.79520
O19         O  0.32942959  0.18339753  0.31927438    -0.82870
O20         O  0.32620225  0.16575959  0.38892495    -2.17580
O21         O  0.35000524  0.23521394  0.49115191    -0.66260
O22         O  0.32109649  0.19659562  0.51279522    -0.50830
C23         C  0.34970310  0.22097584  0.51691666     0.72510
O24         O  0.14797597  0.17235906  0.32748034    -0.59170
O25         O  0.21220450  0.19503141  0.27952632    -0.51150
C26         C  0.16376450  0.18224095  0.29252356     0.74310
O27         O  0.16564278  0.13591497  0.43204781    -0.70570
O28         O  0.20036485  0.15037940  0.49156380    -0.49240
C29         C  0.16006151  0.13947765  0.47026026     0.75690
O30         O  0.32054129  0.26230307  0.38148463    -0.65900
O31         O  0.27807909  0.24123124  0.32398450    -0.53090
C32         C  0.29145481  0.25859734  0.35290353     0.74070
Zr33       Zr  0.30813116  0.23170137  0.42754385     2.77540
O34         O  0.25000968  0.24035157  0.46940995    -0.96640
O35         O  0.37507340  0.27557250  0.44509270    -0.77470
Zr36       Zr  0.18139195  0.16799090  0.38798652     2.70070
O37         O  0.14015788  0.18712673  0.42673255    -0.78710
O38         O  0.09129844  0.13568270  0.37363982    -0.97800
Zr39       Zr  0.29250908  0.20711856  0.31169891     2.21500
Zr40       Zr  0.28225142  0.16970803  0.45074780     2.11130
O41         O  0.23911642  0.19076880  0.44309858    -2.46480
O42         O  0.24855360  0.20958233  0.37387077    -0.78510
O43         O  0.34996299  0.21064286  0.43008260    -0.70700
O44         O  0.22550942  0.16445029  0.32755428    -2.31660
O45         O  0.35025395  0.22820997  0.36681456    -2.27870
O46         O  0.21964604  0.14572781  0.39923565    -0.72460
H47         H  0.34409968  0.15771318  0.39179677     0.79540
H48         H  0.20266847  0.15548914  0.30531839     0.80620
H49         H  0.22117597  0.19167102  0.46790480     0.82850
H50         H  0.37464776  0.24590419  0.36424286     0.80460
H51         H  0.16842625  0.10664185  0.30086816     0.43490
H52         H  0.08436371  0.11987722  0.38341926     0.42460
H53         H  0.13598686  0.19627598  0.40644818     0.42140
H54         H  0.21652002  0.23040088  0.45590210     0.40070
H55         H  0.35735799  0.28145533  0.46481719     0.43210
H56         H  0.50118712  0.24736980  0.36272359     0.37990
H57         H  0.45631214  0.19831092  0.31063054     0.44110
H58         H  0.30390201  0.11303761  0.30558089     0.40520
H59         H  0.24338523  0.23214035  0.49534940     0.45440
H60         H  0.49750766  0.22646327  0.38625777     0.44160
H61         H  0.24403067  0.09344304  0.31362618     0.44300
H62         H  0.07019811  0.14012845  0.39211322     0.44660
O63         O  0.77256679  0.35832069  0.01554237    -0.74210
O64         O  0.68452342  0.33631701  0.01953858    -0.53120
C65         C  0.72901491  0.35398492  0.00573819     0.79520
O66         O  0.73074012  0.23941928  0.09911062    -0.58810
O67         O  0.79734326  0.26615700  0.14033749    -0.51840
C68         C  0.76713208  0.24433133  0.12321495     0.71530
O69         O  0.63654121  0.25321848  0.01588986    -0.73370
O70         O  0.61202015  0.28113619  0.02651884    -0.53940
C71         C  0.60733684  0.26085370  0.01031963     0.77530
O72         O  0.87581576  0.34524624  0.08097168    -0.58520
O73         O  0.86119795  0.30957189  0.09818259    -0.51640
C74         C  0.88147422  0.32726092  0.07218439     0.74120
Zr75       Zr  0.79798199  0.33641278  0.05523446     2.54710
O76         O  0.80574356  0.31966839  0.48737004    -0.79080
O77         O  0.87031273  0.37865052  0.03790696    -0.92500
Zr78       Zr  0.69467441  0.26144402  0.06671291     2.64680
O79         O  0.73209685  0.25152239  0.50547338    -0.97450
O80         O  0.62429871  0.21702298  0.06946402    -0.79520
O81         O  0.71427524  0.30084586  0.04264117    -0.82870
O82         O  0.77694132  0.29633396  0.07580988    -2.17580
O83         O  0.81438601  0.35745086  0.21889881    -0.66260
O84         O  0.83420202  0.32805107  0.20528510    -0.50830
C85         C  0.83890976  0.34729312  0.22656403     0.72510
O86         O  0.54931401  0.26523622  0.13978743    -0.59170
O87         O  0.56882874  0.29321906  0.09236267    -0.51150
C88         C  0.53582915  0.27370634  0.11231699     0.74310
O89         O  0.66020618  0.26187453  0.21922791    -0.70570
O90         O  0.72667789  0.26008289  0.18955782    -0.49240
C91         C  0.68239812  0.25003903  0.21069044     0.75690
O92         O  0.71777775  0.37251475  0.14666692    -0.65900
O93         O  0.66027398  0.35131441  0.09600326    -0.53090
C94         C  0.68707855  0.37070694  0.12068511     0.74070
Zr95       Zr  0.75125001  0.34867525  0.16729860     2.77540
O96         O  0.71096164  0.35347862  0.23146153    -0.96640
O97         O  0.82238805  0.39300492  0.16802504    -0.77470
Zr98       Zr  0.63383928  0.27634493  0.16769655     2.70070
O99         O  0.59153316  0.28140953  0.23041445    -0.78710
O100        O  0.56794594  0.23188643  0.15274311    -0.97800
Zr101      Zr  0.66075304  0.31305151  0.07894200     2.21500
Zr102      Zr  0.78398255  0.29931578  0.14855754     2.11130
O103        O  0.72330956  0.30782652  0.18474198    -2.46480
O104        O  0.66211658  0.31744557  0.15148488    -0.78510
O105        O  0.80763662  0.33954373  0.12784230    -0.70700
O106        O  0.63655219  0.27256660  0.09705618    -2.31660
O107        O  0.74588453  0.34679809  0.09515698    -2.27870
O108        O  0.69524417  0.26703341  0.13705526    -0.72460
H109        H  0.79414644  0.28997533  0.05827103     0.79540
H110        H  0.60225833  0.25934414  0.08881935     0.80620
H111        H  0.72639545  0.30833242  0.21378187     0.82850
H112        H  0.75529173  0.36293206  0.08679136     0.80460
H113        H  0.59215479  0.21688983  0.07436610     0.43490
H114        H  0.58570970  0.22295101  0.15206489     0.42460
H115        H  0.61456259  0.29948798  0.23898893     0.42140
H116        H  0.71059342  0.34197179  0.24980257     0.40070
H117        H  0.83701915  0.39571304  0.13950799     0.43210
H118        H  0.86049707  0.39020002  0.05069317     0.37990
H119        H  0.78796514  0.32393425  0.46960245     0.44110
H120        H  0.75607016  0.26782635  0.49259904     0.40520
H121        H  0.73722916  0.37061414  0.24251232     0.45440
H122        H  0.86964378  0.37947579  0.00811225     0.44160
H123        H  0.75501587  0.24713586  0.51559692     0.44300
H124        H  0.54234335  0.22587626  0.17622348     0.44660
O125        O  0.99562000  0.20257141  0.02219559    -0.74210
O126        O  0.93841758  0.18829158  0.47387444    -0.53120
C127        C  0.97951545  0.20622296  0.99129160     0.79520
O128        O  0.00201995  0.14898133  0.14947926    -0.58810
O129        O  0.95276135  0.15296608  0.20130068    -0.51840
C130        C  0.99404122  0.15356786  0.18735038     0.71530
O131        O  0.98699394  0.16020659  0.02171848    -0.73370
O132        O  0.95214763  0.14196733  0.46429810    -0.53940
C133        C  0.98905055  0.14952140  0.48791514     0.77530
O134        O  0.96591312  0.21402297  0.15873596    -0.58520
O135        O  0.92470166  0.18606288  0.20884068    -0.51640
C136        C  0.95357952  0.20854269  0.19615851     0.74120
Zr137      Zr  0.95371616  0.19800020  0.08929966     2.54710
O138        O  0.04510108  0.23183582  0.09420921    -0.79080
O139        O  0.94341833  0.23262442  0.08330969    -0.92500
Zr140      Zr  0.96173323  0.13895065  0.08396937     2.64680
O141        O  0.04488430  0.14312949  0.07565483    -0.97450
O142        O  0.94474562  0.09694751  0.06921856    -0.79520
O143        O  0.95803600  0.16788062  0.04704738    -0.82870
O144        O  0.95784489  0.16987939  0.12734133    -2.17580
O145        O  0.76417666  0.14608718  0.15437972    -0.66260
O146        O  0.83075174  0.16914421  0.19251048    -0.50830
C147        C  0.79033437  0.16566708  0.17656759     0.72510
O148        O  0.78346522  0.07955287  0.00756303    -0.59170
O149        O  0.83788947  0.10936873  0.46152463    -0.51150
C150        C  0.79890684  0.08754109  0.97068480     0.74310
O151        O  0.81827971  0.07938149  0.14518474    -0.70570
O152        O  0.84010036  0.10712805  0.20079916    -0.49240
C153        C  0.82698689  0.08527776  0.18378283     0.75690
O154        O  0.79731631  0.16783948  0.02665618    -0.65900
O155        O  0.80603553  0.14368026  0.97792792    -0.53090
C156        C  0.78190873  0.15410874  0.99438498     0.74070
Zr157      Zr  0.80108989  0.15176590  0.08685394     2.77540
O158        O  0.70897518  0.12395589  0.07550308    -0.96640
O159        O  0.80171121  0.18967596  0.08375423    -0.77470
Zr160      Zr  0.81192583  0.09378524  0.07981097     2.70070
O161        O  0.71877584  0.06767339  0.09645141    -0.78710
O162        O  0.81050374  0.05553818  0.06170784    -0.97800
Zr163      Zr  0.88551836  0.14674447  0.00263934     2.21500
Zr164      Zr  0.87802936  0.14744927  0.16768619     2.11130
O165        O  0.80302224  0.12243475  0.12577900    -2.46480
O166        O  0.80669360  0.12230057  0.04266251    -0.78510
O167        O  0.87445983  0.17547196  0.12744826    -0.70700
O168        O  0.89030810  0.11674546  0.03987854    -2.31660
O169        O  0.88090053  0.17652314  0.04870842    -2.27870
O170        O  0.88396995  0.11722493  0.12258769    -0.72460
H171        H  0.98845695  0.18106177  0.14257213     0.79540
H172        H  0.89394589  0.10528514  0.02081206     0.80620
H173        H  0.77185709  0.11214774  0.14261709     0.82850
H174        H  0.88340993  0.18960551  0.03425105     0.80460
H175        H  0.96201941  0.09776796  0.04199778     0.43490
H176        H  0.83748767  0.05708671  0.07799151     0.42460
H177        H  0.70358363  0.07334383  0.07864125     0.42140
H178        H  0.69358657  0.11624486  0.10209098     0.40070
H179        H  0.83849698  0.20380774  0.08613698     0.43210
H180        H  0.97912685  0.24795566  0.08472964     0.37990
H181        H  0.06297170  0.22301340  0.09515237     0.44110
H182        H  0.07051241  0.16062531  0.08568355     0.40520
H183        H  0.69726538  0.13536788  0.07329333     0.45440
H184        H  0.92587037  0.23345073  0.10955963     0.44160
H185        H  0.04371200  0.13224985  0.09578972     0.44300
H186        H  0.77715398  0.04187099  0.07409239     0.44660
O187        O  0.14611810  0.29956243  0.35800866    -0.74210
O188        O  0.19887194  0.32887920  0.40577533    -0.53120
C189        C  0.18370292  0.30900012  0.38181231     0.79520
O190        O  0.15687995  0.38668367  0.25964553    -0.58810
O191        O  0.08293099  0.38498901  0.27563229    -0.51840
C192        C  0.12863379  0.39510504  0.25666100     0.71530
O193        O  0.25972552  0.38425408  0.34458363    -0.73370
O194        O  0.25416778  0.38322847  0.41314239    -0.53940
C195        C  0.27814991  0.38508897  0.37871072     0.77530
O196        O  0.00374991  0.29688325  0.32125663    -0.58520
O197        O  0.99359282  0.31489410  0.27314023    -0.51640
C198        C  0.98943882  0.29563259  0.28573552     0.74120
Zr199      Zr  0.09226867  0.31030990  0.33074154     2.54710
O200        O  0.12652045  0.30865966  0.26172234    -0.79080
O201        O  0.05058797  0.26523341  0.31463061    -0.92500
Zr202      Zr  0.18506292  0.38373368  0.32279554     2.64680
O203        O  0.24648452  0.38865834  0.26643457    -0.97450
O204        O  0.23850466  0.42966480  0.32803391    -0.79340
O205        O  0.17081352  0.34780231  0.35035116    -0.82870
O206        O  0.10609900  0.34564921  0.30034342    -2.17580
O207        O  0.94255749  0.30088190  0.39319248    -0.66260
O208        O  0.94745916  0.33299650  0.36952931    -0.50830
C209        C  0.92693256  0.31538832  0.39580232     0.72510
O210        O  0.13029908  0.39953364  0.47739633    -0.59170
O211        O  0.17034434  0.37904050  0.48424038    -0.51150
C212        C  0.15534531  0.39367144  0.49772321     0.74310
O213        O  0.01961699  0.39011105  0.37711307    -0.70570
O214        O  0.03772350  0.38568640  0.31218599    -0.49240
C215        C  0.00822669  0.38737877  0.33865031     0.75690
O216        O  0.06650018  0.32280341  0.48729357    -0.65900
O217        O  0.14039193  0.32601686  0.47479996    -0.53090
C218        C  0.09290442  0.31318795  0.48767350     0.74070
Zr219      Zr  0.01988826  0.31922142  0.42902082     2.77540
O220        O  0.98841769  0.33077768  0.49146758    -0.96640
O221        O  0.95902419  0.27451051  0.43958391    -0.77470
Zr222      Zr  0.09904679  0.39391400  0.40962877     2.70070
O223        O  0.06675722  0.41397922  0.45802264    -0.78710
O224        O  0.16036709  0.43794724  0.39381609    -0.97800
Zr225      Zr  0.16281649  0.35476828  0.42185330     2.21500
Zr226      Zr  0.03350017  0.34903259  0.32457123     2.11130
O227        O  0.02740260  0.35404446  0.39849865    -2.46480
O228        O  0.09279948  0.35963004  0.44094905    -0.78510
O229        O  0.02586653  0.31515907  0.35735448    -0.70700
O230        O  0.17442858  0.39136135  0.39353816    -2.31660
O231        O  0.08782762  0.31453856  0.40282188    -2.27870
O232        O  0.11312016  0.38746058  0.34060526    -0.72460
H233        H  0.10605264  0.34263031  0.27104579     0.79540
H234        H  0.20544248  0.40658071  0.40344517     0.80620
H235        H  0.00436802  0.35750569  0.41465987     0.82850
H236        H  0.08458632  0.30007028  0.41306231     0.80460
H237        H  0.27032559  0.43394381  0.34077938     0.43490
H238        H  0.19452059  0.44211351  0.40148252     0.42460
H239        H  0.03562581  0.39974780  0.47174252     0.42140
H240        H  0.01770351  0.34783224  0.50015417     0.40070
H241        H  0.96807988  0.26599248  0.41700611     0.43210
H242        H  0.04301258  0.25777189  0.34146662     0.37990
H243        H  0.16252206  0.31372634  0.26535772     0.44110
H244        H  0.22580443  0.37441390  0.24660500     0.40520
H245        H  0.98427991  0.31969819  0.51256399     0.45440
H246        H  0.07844036  0.26343925  0.30131315     0.44160
H247        H  0.25571721  0.40392661  0.25289476     0.44300
H248        H  0.16292305  0.43788485  0.36361820     0.44660
O249        O  0.35483372  0.09493686  0.16014465    -0.74210
O250        O  0.42329794  0.12520686  0.12153764    -0.53120
C251        C  0.38133478  0.11687549  0.14465967     0.79520
O252        O  0.51473004  0.04883836  0.19267930    -0.58810
O253        O  0.43797392  0.01122391  0.19046109    -0.51840
C254        C  0.48635294  0.02495448  0.19667413     0.71530
O255        O  0.54677213  0.12600413  0.19042353    -0.73370
O256        O  0.52701439  0.14177222  0.14121788    -0.53940
C257        C  0.55006708  0.14431804  0.17396459     0.77530
O258        O  0.28730304  0.01147954  0.18554097    -0.58520
O259        O  0.32467174  0.48915048  0.17293254    -0.51640
C260        C  0.28614190  0.49078075  0.18607132     0.74120
Zr261      Zr  0.35265713  0.05605367  0.16374929     2.54710
O262        O  0.35032309  0.06595976  0.23684334    -0.79080
O263        O  0.26397261  0.04433495  0.15815427    -0.92500
Zr264      Zr  0.49817514  0.08013346  0.17984730     2.64680
O265        O  0.46795636  0.07888904  0.25111838    -0.97450
O266        O  0.58387164  0.10030308  0.20687148    -0.79520
O267        O  0.44167375  0.09109736  0.16172573    -0.82870
O268        O  0.40955511  0.04544207  0.18328479    -2.17580
O269        O  0.30553512  0.49527363  0.05986966    -0.66260
O270        O  0.33589866  0.47865897  0.09788952    -0.50830
C271        C  0.30151047  0.47683088  0.07665277     0.72510
O272        O  0.53843194  0.09146668  0.01385357    -0.59170
O273        O  0.55287471  0.12615269  0.04932563    -0.51150
C274        C  0.56796701  0.11508261  0.02205554     0.74310
O275        O  0.51467360  0.02228145  0.06319112    -0.70570
O276        O  0.44472502  0.49283962  0.10109623    -0.49240
C277        C  0.48572606  0.00006946  0.07724866     0.75690
O278        O  0.37302212  0.07095687  0.01196155    -0.65900
O279        O  0.43216170  0.11095009  0.03704528    -0.53090
C280        C  0.39580545  0.09499933  0.01299753     0.74070
Zr281      Zr  0.37237741  0.03923068  0.04702427     2.77540
O282        O  0.39460899  0.02565327  0.48138139    -0.96640
O283        O  0.29115634  0.02537628  0.01698812    -0.77470
Zr284      Zr  0.51489541  0.06076132  0.06290106     2.70070
O285        O  0.53406918  0.04581613  0.49733592    -0.78710
O286        O  0.60655850  0.08194367  0.07397245    -0.97800
Zr287      Zr  0.47018544  0.10573787  0.09390385     2.21500
Zr288      Zr  0.40399533  0.01497426  0.13192716     2.11130
O289        O  0.42696562  0.02656011  0.06290790    -2.46480
O290        O  0.46051229  0.07336142  0.04463523    -0.78510
O291        O  0.34654775  0.02568316  0.11419745    -0.70700
O292        O  0.52635553  0.09371404  0.11201994    -2.31660
O293        O  0.37999238  0.07069132  0.09609239    -2.27870
O294        O  0.49256807  0.04896506  0.13078345    -0.72460
H295        H  0.39894133  0.03850343  0.20994725     0.79540
H296        H  0.56227012  0.10782633  0.11156887     0.80620
H297        H  0.42196265  0.01267736  0.04468128     0.82850
H298        H  0.35806115  0.07590031  0.08869240     0.80460
H299        H  0.60715181  0.10259201  0.18251350     0.43490
H300        H  0.60768451  0.07224679  0.09509719     0.42460
H301        H  0.50173702  0.03791668  0.48249357     0.42140
H302        H  0.36396933  0.00836729  0.47584166     0.40070
H303        H  0.27054579  0.02779665  0.03951596     0.43210
H304        H  0.26498869  0.05184502  0.13285703     0.37990
H305        H  0.37718894  0.08426716  0.24009657     0.44110
H306        H  0.48253462  0.07112919  0.26468650     0.40520
H307        H  0.39351744  0.03597445  0.46142342     0.45440
H308        H  0.25859098  0.05424619  0.18061599     0.44160
H309        H  0.48778822  0.09676416  0.26143324     0.44300
H310        H  0.62088567  0.07777440  0.04869070     0.44660
O311        O  0.48960583  0.39129457  0.33972123    -0.74210
O312        O  0.49112844  0.39080834  0.40613868    -0.53120
C313        C  0.46558503  0.38656777  0.37463719     0.79520
O314        O  0.66166949  0.42353481  0.21618293    -0.58810
O315        O  0.67607377  0.46168438  0.20537844    -0.51840
C316        C  0.67235446  0.44090917  0.19302181     0.71530
O317        O  0.59088971  0.37144152  0.31148306    -0.73370
O318        O  0.54834402  0.37075670  0.37222763    -0.53940
C319        C  0.55648854  0.35982521  0.33984189     0.77530
O320        O  0.54597293  0.45958607  0.25890343    -0.58520
O321        O  0.62898333  0.48614692  0.23312147    -0.51640
C322        C  0.58038053  0.47684525  0.23527837     0.74120
Zr323      Zr  0.53151580  0.43275860  0.31321404     2.54710
O324        O  0.46339915  0.40888233  0.26471510    -0.79080
O325        O  0.46943783  0.44201466  0.34575418    -0.92500
Zr326      Zr  0.62602137  0.41104312  0.28336090     2.64680
O327        O  0.55336457  0.38254323  0.24025829    -0.97450
O328        O  0.67593334  0.39286443  0.26070398    -0.79520
O329        O  0.55767891  0.40602475  0.32780811    -0.82870
O330        O  0.59832494  0.43682250  0.26747015    -2.17580
O331        O  0.64465620  0.01146189  0.33903969    -0.66260
O332        O  0.71196274  0.02348204  0.29621022    -0.50830
C333        C  0.69083919  0.02849622  0.32797306     0.72510
O334        O  0.72627278  0.43632090  0.40733645    -0.59170
O335        O  0.64183084  0.40928962  0.43183460    -0.51150
C336        C  0.69070345  0.41772311  0.42860789     0.74310
O337        O  0.79852866  0.50272899  0.31563563    -0.70570
O338        O  0.75421255  0.48246859  0.26253159    -0.49240
C339        C  0.79141572  0.50272732  0.27755037     0.75690
O340        O  0.58194409  0.46988940  0.45231289    -0.65900
O341        O  0.55997806  0.43027802  0.46307216    -0.53090
C342        C  0.56108534  0.45077720  0.47412817     0.74070
Zr343      Zr  0.63368589  0.48398506  0.39017306     2.77540
O344        O  0.70594671  0.00856154  0.43499976    -0.96640
O345        O  0.60298866  0.00894140  0.42522823    -0.77470
Zr346      Zr  0.73271796  0.46428743  0.35738913     2.70070
O347        O  0.79070078  0.49349952  0.40983609    -0.78710
O348        O  0.79381528  0.45328751  0.33013375    -0.97800
Zr349      Zr  0.58551741  0.41568185  0.39624699     2.21500
Zr350      Zr  0.67326440  0.47819883  0.27611196     2.11130
O351        O  0.70349090  0.48990326  0.34497952    -2.46480
O352        O  0.66163295  0.45783649  0.40413785    -0.78510
O353        O  0.60463001  0.47405817  0.32251797    -0.70700
O354        O  0.65669340  0.42199642  0.34977967    -2.31660
O355        O  0.55885682  0.44280296  0.38137546    -2.27870
O356        O  0.70148795  0.45199578  0.29025610    -0.72460
H357        H  0.58670834  0.43304817  0.23996355     0.79540
H358        H  0.66514291  0.40995821  0.35393137     0.80620
H359        H  0.73274158  0.50694797  0.34884397     0.82850
H360        H  0.52964333  0.44012369  0.39888756     0.80460
H361        H  0.71152449  0.40570707  0.26946199     0.43490
H362        H  0.77373027  0.43466370  0.33076709     0.42460
H363        H  0.80732620  0.51042519  0.39900818     0.42140
H364        H  0.73699868  0.01967295  0.41762579     0.40070
H365        H  0.56997442  0.00284127  0.41249660     0.43210
H366        H  0.45497454  0.43226632  0.37062296     0.37990
H367        H  0.48101827  0.40639277  0.23986982     0.44110
H368        H  0.52327563  0.38233395  0.25389481     0.40520
H369        H  0.69832780  0.01981060  0.45214821     0.45440
H370        H  0.44014467  0.43370592  0.32733989     0.44160
H371        H  0.56064879  0.39120509  0.21474201     0.44300
H372        H  0.79864316  0.45655699  0.30073077     0.44660
C373        C  0.51396703  0.47505522  0.19818061     0.24670
C374        C  0.56321596  0.48927050  0.21408848    -0.23430
C375        C  0.58906619  0.01545307  0.22118240     0.19580
C376        C  0.56346348  0.02702167  0.21645815     0.24620
C377        C  0.51225200  0.01255067  0.20350453    -0.23380
C378        C  0.48838891  0.48660636  0.19281115     0.19520
F379        F  0.44011225  0.47222901  0.17794356    -0.13340
F380        F  0.48943433  0.44972753  0.19061130    -0.15700
F381        F  0.58800962  0.05211154  0.22662113    -0.15700
F382        F  0.63668557  0.02938627  0.23732936    -0.13340
C383        C  0.55170033  0.98847065  0.06403924     0.24670
C384        C  0.50015709  0.48168187  0.06242465    -0.23430
C385        C  0.46582472  0.45971179  0.03903098     0.19580
C386        C  0.48407417  0.44663026  0.01423487     0.24620
C387        C  0.53661731  0.45445142  0.51326680    -0.23380
C388        C  0.56943755  0.47486279  0.04027964     0.19520
F389        F  0.62080720  0.98381810  0.53942963    -0.13340
F390        F  0.58612961  0.00956210  0.08620335    -0.15700
F391        F  0.45214182  0.42880399  0.98656086    -0.15700
F392        F  0.41613330  0.45281721  0.03589877    -0.13340
C393        C  0.22865879  0.44300653  0.18405287     0.24670
C394        C  0.23757975  0.46627602  0.20075343    -0.23430
C395        C  0.20159007  0.46498420  0.23201904     0.19580
C396        C  0.16123945  0.44137609  0.24802517     0.24620
C397        C  0.15454931  0.41838707  0.23205121    -0.23380
C398        C  0.18738878  0.41979077  0.19832342     0.19520
F399        F  0.18267247  0.39840993  0.18130754    -0.13340
F400        F  0.26204194  0.44245069  0.15508039    -0.15700
F401        F  0.13174035  0.44127388  0.28127809    -0.15700
F402        F  0.20790468  0.48659125  0.24941187    -0.13340
C403        C  0.21460730  0.40760001  0.05343206     0.24670
C404        C  0.17370034  0.40716275  0.03732333    -0.23430
C405        C  0.16629360  0.42672928  0.54928066     0.19580
C406        C  0.20726731  0.44940563  0.06541509     0.24620
C407        C  0.25426437  0.45190941  0.07097818    -0.23380
C408        C  0.25608651  0.43034413  0.06867335     0.19520
F409        F  0.29976179  0.43175205  0.07694284    -0.13340
F410        F  0.21903327  0.38751270  0.04787859    -0.15700
F411        F  0.20261782  0.46939330  0.57218744    -0.15700
F412        F  0.12321526  0.42540360  0.53950685    -0.13340
C413        C  0.38619938  0.37602115  0.34188807     0.24670
C414        C  0.41228272  0.38098759  0.37780510    -0.23430
C415        C  0.39126471  0.38516458  0.41480260     0.19580
C416        C  0.34952152  0.38795117  0.41510539     0.24620
C417        C  0.32635683  0.38534906  0.37827634    -0.23380
C418        C  0.34467735  0.37875322  0.34184673     0.19520
F419        F  0.32180370  0.37428178  0.30604235    -0.13340
F420        F  0.40072024  0.36827889  0.30654808    -0.15700
F421        F  0.33148536  0.39276613  0.45159751    -0.15700
F422        F  0.41062338  0.38615347  0.45064643    -0.13340
C423        C  0.79807506  0.06868827  0.40122403     0.24670
C424        C  0.77029749  0.07172162  0.43485050    -0.23430
C425        C  0.71952296  0.06490461  0.42972763     0.19580
C426        C  0.69687817  0.05478651  0.39176854     0.24620
C427        C  0.72229840  0.04872778  0.35967907    -0.23380
C428        C  0.77392520  0.05686352  0.36461176     0.19520
F429        F  0.79956168  0.05117360  0.33559992    -0.13340
F430        F  0.84802849  0.07599405  0.40460115    -0.15700
F431        F  0.64947007  0.05030759  0.38654766    -0.15700
F432        F  0.69184734  0.06787492  0.46149831    -0.13340
C433        C  0.85129510  0.07078997  0.24386322     0.24670
C434        C  0.82308354  0.06531195  0.20842128    -0.23430
C435        C  0.79551900  0.04010112  0.19284547     0.19580
C436        C  0.79322303  0.02118468  0.21278002     0.24620
C437        C  0.81377358  0.02557933  0.25160079    -0.23380
C438        C  0.84766604  0.05115210  0.26457521     0.19520
F439        F  0.87767287  0.05721247  0.29671738    -0.13340
F440        F  0.88321610  0.09507715  0.25798011    -0.15700
F441        F  0.77070188  0.99818883  0.19304709    -0.15700
F442        F  0.76977022  0.03323372  0.15785133    -0.13340
C443        C  0.71310703  0.16389588  0.00085168     0.24670
C444        C  0.73017990  0.14835266  0.98280812    -0.23430
C445        C  0.69196818  0.12440568  0.96717138     0.19580
C446        C  0.63871080  0.11457080  0.97608135     0.24620
C447        C  0.62215022  0.12841853  0.00161759    -0.23380
C448        C  0.66014596  0.15388492  0.01117669     0.19520
F449        F  0.64675845  0.16876425  0.03293967    -0.13340
F450        F  0.74836537  0.18831243  0.01273707    -0.15700
F451        F  0.60373071  0.09075684  0.96162280    -0.15700
F452        F  0.70611429  0.10980808  0.94577961    -0.13340
C453        C  0.93556074  0.22821997  0.25798733     0.24670
C454        C  0.96901819  0.23035087  0.22443446    -0.23430
C455        C  0.00842030  0.25450379  0.21103622     0.19580
C456        C  0.01052427  0.27575419  0.22787298     0.24620
C457        C  0.97613683  0.27343498  0.26034055    -0.23380
C458        C  0.93953476  0.24976243  0.27605102     0.19520
F459        F  0.90783401  0.24765613  0.30908138    -0.13340
F460        F  0.89703816  0.20534107  0.27163443    -0.15700
F461        F  0.04770842  0.29875035  0.21378780    -0.15700
F462        F  0.04352433  0.25740832  0.18027752    -0.13340
C463        C  0.06029565  0.24642051  0.97319767     0.24670
C464        C  0.00620348  0.23246853  0.48099227    -0.23430
C465        C  0.98199202  0.24513514  0.49412537     0.19580
C466        C  0.01162509  0.27122878  0.50171375     0.24620
C467        C  0.06537458  0.28557748  0.49142606    -0.23380
C468        C  0.08959983  0.27277210  0.97753172     0.19520
F469        F  0.14156333  0.28559122  0.96845304    -0.13340
F470        F  0.08485769  0.23437051  0.96268301    -0.15700
F471        F  0.98719782  0.28240026  0.51864924    -0.15700
F472        F  0.92980768  0.23203340  0.50240847    -0.13340
C473        C  0.87559617  0.29948013  0.50709488     0.24670
C474        C  0.89305833  0.32341370  0.52668185    -0.23430
C475        C  0.91466524  0.34388920  0.50054783     0.19580
C476        C  0.91653103  0.34052567  0.45735049     0.24620
C477        C  0.90325061  0.31713024  0.43801555    -0.23380
C478        C  0.88050926  0.29644271  0.46388172     0.19520
F479        F  0.86462976  0.27308420  0.44731189    -0.13340
F480        F  0.85561005  0.27902684  0.02966667    -0.15700
F481        F  0.93412171  0.36074357  0.43479296    -0.15700
F482        F  0.93759524  0.36780795  0.51688461    -0.13340
C483        C  0.89646200  0.38176243  0.28288270     0.24670
C484        C  0.87525865  0.35761178  0.26203662    -0.23430
C485        C  0.89250346  0.34301101  0.27356782     0.19580
C486        C  0.93262302  0.35274116  0.29992239     0.24620
C487        C  0.95488152  0.37654273  0.32160994    -0.23380
C488        C  0.93559729  0.39103840  0.31233506     0.19520
F489        F  0.95757002  0.41491146  0.32883557    -0.13340
F490        F  0.88162021  0.39697055  0.27332259    -0.15700
F491        F  0.95510691  0.33980979  0.29814219    -0.15700
F492        F  0.87403090  0.31944315  0.25648421    -0.13340
C493        C  0.73242715  0.19832991  0.13422814     0.24670
C494        C  0.77320632  0.22397101  0.13634594    -0.23430
C495        C  0.81803198  0.23049130  0.15677013     0.19580
C496        C  0.82204622  0.21210505  0.17359146     0.24620
C497        C  0.78171858  0.18637530  0.17072223    -0.23380
C498        C  0.73637629  0.18000035  0.15123956     0.19520
F499        F  0.69673201  0.15546390  0.14547860    -0.13340
F500        F  0.68836815  0.19075288  0.11559110    -0.15700
F501        F  0.86713467  0.21947500  0.19010585    -0.15700
F502        F  0.85942001  0.25482146  0.15953830    -0.13340
C503        C  0.72818503  0.43805294  0.13966574     0.24670
C504        C  0.67962100  0.43446060  0.14994573    -0.23430
C505        C  0.63533907  0.41230244  0.13381386     0.19580
C506        C  0.63758784  0.39137538  0.12002054     0.24620
C507        C  0.68497401  0.39329951  0.11955693    -0.23380
C508        C  0.73085174  0.41744084  0.12530307     0.19520
F509        F  0.77798682  0.42045472  0.12152530    -0.13340
F510        F  0.77218869  0.45967425  0.15230149    -0.15700
F511        F  0.59280547  0.36866213  0.11268585    -0.15700
F512        F  0.58800228  0.40889598  0.14065454    -0.13340
C513        C  0.68803418  0.36086520  0.95241807     0.24670
C514        C  0.72833164  0.37107299  0.97943557    -0.23430
C515        C  0.75953086  0.39739261  0.48749578     0.19580
C516        C  0.74828229  0.41306736  0.47058632     0.24620
C517        C  0.70533188  0.40242201  0.44618158    -0.23380
C518        C  0.67647569  0.37635505  0.93615990     0.19520
F519        F  0.63667976  0.36581219  0.91060615    -0.13340
F520        F  0.65818405  0.33560594  0.94327330    -0.15700
F521        F  0.77723087  0.43829487  0.47988795    -0.15700
F522        F  0.79801137  0.40764946  0.51419689    -0.13340
C523        C  0.66868587  0.20668228  0.21259309     0.24670
C524        C  0.64926507  0.22212151  0.21746177    -0.23430
C525        C  0.59449325  0.20964619  0.22136999     0.19580
C526        C  0.56201563  0.18439931  0.20698121     0.24620
C527        C  0.58285417  0.17010628  0.19427157    -0.23380
C528        C  0.63467759  0.18044451  0.20358522     0.19520
F529        F  0.65158422  0.16507535  0.20472292    -0.13340
F530        F  0.71966850  0.21681073  0.21781093    -0.15700
F531        F  0.51006058  0.17366961  0.20685409    -0.15700
F532        F  0.57234056  0.22219775  0.23674794    -0.13340
C533        C  0.03143972  0.16360988  0.25780295     0.24670
C534        C  0.03762738  0.16166104  0.21496850    -0.23430
C535        C  0.08751452  0.16850759  0.19814839     0.19580
C536        C  0.12870806  0.17610429  0.22303909     0.24620
C537        C  0.12196540  0.17719192  0.26573221    -0.23380
C538        C  0.07283181  0.17119724  0.28275754     0.19520
F539        F  0.06458747  0.17269157  0.32386430    -0.13340
F540        F  0.98512318  0.15785862  0.27584196    -0.15700
F541        F  0.17484592  0.18153348  0.20503274    -0.15700
F542        F  0.09733316  0.16809221  0.15721021    -0.13340
C543        C  0.06479083  0.11914185  0.46790884     0.24670
C544        C  0.11246951  0.13821673  0.48465620    -0.23430
C545        C  0.11754219  0.16006352  0.50306093     0.19580
C546        C  0.07905693  0.16449742  0.49938343     0.24620
C547        C  0.03197177  0.14592949  0.48134277    -0.23380
C548        C  0.02435047  0.12283319  0.46679495     0.19520
F549        F  0.97825524  0.10403938  0.95161774    -0.13340
F550        F  0.05841867  0.09738995  0.95111905    -0.15700
F551        F  0.08749057  0.18697935  0.51457037    -0.15700
F552        F  0.16070793  0.17779872  0.52302939    -0.13340
C553        C  0.26438992  0.30884870  0.38630648     0.24670
C554        C  0.21141751  0.29598097  0.37845836    -0.23430
C555        C  0.18601704  0.27095151  0.36157184     0.19580
C556        C  0.21337316  0.25973641  0.35055969     0.24620
C557        C  0.26661783  0.27282338  0.35720242    -0.23380
C558        C  0.29180700  0.29738524  0.37579920     0.19520
F559        F  0.34293273  0.31026883  0.38384233    -0.13340
F560        F  0.28977963  0.33253252  0.40373736    -0.15700
F561        F  0.18673546  0.23538014  0.33554927    -0.15700
F562        F  0.13405741  0.25695323  0.35612340    -0.13340
C563        C  0.35965194  0.09389885  0.44734726     0.24670
C564        C  0.37340655  0.10400364  0.48753553    -0.23430
C565        C  0.35477377  0.11818253  0.00661013     0.19580
C566        C  0.32134200  0.12141604  0.48676153     0.24620
C567        C  0.30715853  0.11136438  0.44631952    -0.23380
C568        C  0.32765783  0.09798108  0.42657934     0.19520
F569        F  0.31558181  0.08821951  0.38774516    -0.13340
F570        F  0.37638800  0.07961519  0.42856594    -0.15700
F571        F  0.30287248  0.13444879  0.50774793    -0.15700
F572        F  0.36579270  0.12739080  0.04585089    -0.13340
C573        C  0.39485694  0.15935597  0.16610059     0.24670
C574        C  0.36131192  0.13334096  0.15588387    -0.23430
C575        C  0.30739402  0.12210395  0.16282332     0.19580
C576        C  0.28824013  0.13529400  0.18506055     0.24620
C577        C  0.32244625  0.15989515  0.20150017    -0.23380
C578        C  0.37565268  0.17245053  0.18948107     0.19520
F579        F  0.40978226  0.19624929  0.20466866    -0.13340
F580        F  0.44666277  0.17146036  0.15701639    -0.15700
F581        F  0.23654251  0.12281039  0.19539659    -0.15700
F582        F  0.27320678  0.09759800  0.15079174    -0.13340
C583        C  0.50582403  0.31502797  0.36184796     0.24670
C584        C  0.52301891  0.33211156  0.33131238    -0.23430
C585        C  0.50943975  0.32252020  0.29051487     0.19580
C586        C  0.47796791  0.29662487  0.28086228     0.24620
C587        C  0.46127712  0.27959793  0.31121860    -0.23380
C588        C  0.47630333  0.28904542  0.35181662     0.19520
F589        F  0.46119794  0.27320809  0.38242000    -0.13340
F590        F  0.51852180  0.32339552  0.40112616    -0.15700
F591        F  0.46440657  0.28820448  0.24174387    -0.15700
F592        F  0.52598784  0.33820504  0.25956722    -0.13340
C593        C  0.48854015  0.19878113  0.48077799     0.24670
C594        C  0.45529432  0.20651480  0.47650783    -0.23430
C595        C  0.47440913  0.23224111  0.47698916     0.19580
C596        C  0.52606451  0.25023525  0.48309074     0.24620
C597        C  0.55941232  0.24278562  0.48997747    -0.23380
C598        C  0.54057317  0.21678824  0.48745213     0.19520
F599        F  0.57179484  0.20861126  0.99224824    -0.13340
F600        F  0.47099699  0.17392978  0.47670584    -0.15700
F601        F  0.54324549  0.27496645  0.48234671    -0.15700
F602        F  0.44431753  0.24006651  0.46703448    -0.13340
C603        C  0.46309677  0.27286763  0.08087863     0.24670
C604        C  0.48031580  0.25963395  0.09873144    -0.23430
C605        C  0.44860303  0.23300524  0.09471761     0.19580
C606        C  0.40374751  0.22026774  0.07116244     0.24620
C607        C  0.38910294  0.23371231  0.05037024    -0.23380
C608        C  0.41867578  0.26026356  0.05731924     0.19520
F609        F  0.40637421  0.27447955  0.03955953    -0.13340
F610        F  0.49111942  0.29848451  0.08436929    -0.15700
F611        F  0.37705038  0.19473832  0.06637070    -0.15700
F612        F  0.46336301  0.21921511  0.11057936    -0.13340
O613        O  0.43554093  0.23788848  0.81660857    -0.74210
O614        O  0.37821025  0.24446250  0.79188214    -0.53120
C615        C  0.42404402  0.25220880  0.80293329     0.79520
O616        O  0.27946768  0.11801787  0.88521612    -0.58810
O617        O  0.25252793  0.12604972  0.94681717    -0.51840
C618        C  0.27602489  0.11760462  0.92465959     0.71530
O619        O  0.29235952  0.15088916  0.76866378    -0.73370
O620        O  0.30873802  0.18796551  0.74788283    -0.53940
C621        C  0.30620307  0.16694555  0.74138565     0.77530
O622        O  0.41608139  0.18968908  0.91691893    -0.58520
O623        O  0.36449073  0.18133399  0.97493057    -0.51640
C624        C  0.40862269  0.19012168  0.95549683     0.74120
Zr625      Zr  0.39177733  0.20649380  0.86813090     2.54710
O626        O  0.41954342  0.18522861  0.81789889    -0.79080
O627        O  0.48232035  0.23658240  0.88610699    -0.92500
Zr628      Zr  0.26310548  0.14184252  0.83971934     2.64680
O629        O  0.26939585  0.10933439  0.80003361    -0.97450
O630        O  0.17160320  0.10922961  0.83084183    -0.79520
O631        O  0.32942976  0.18339755  0.81927452    -0.82870
O632        O  0.32620231  0.16575960  0.88892512    -2.17580
O633        O  0.35000524  0.23521393  0.99115209    -0.66260
O634        O  0.32109652  0.19659562  0.01279538    -0.50830
C635        C  0.34970310  0.22097584  0.01691685     0.72510
O636        O  0.14797614  0.17235912  0.82748040    -0.59170
O637        O  0.21220471  0.19503145  0.77952639    -0.51150
C638        C  0.16376470  0.18224100  0.79252361     0.74310
O639        O  0.16564281  0.13591500  0.93204789    -0.70570
O640        O  0.20036482  0.15037941  0.99156390    -0.49240
C641        C  0.16006152  0.13947767  0.97026033     0.75690
O642        O  0.32054098  0.26230309  0.88148501    -0.65900
O643        O  0.27807959  0.24123135  0.82398449    -0.53090
C644        C  0.29145501  0.25859743  0.85290354     0.74070
Zr645      Zr  0.30813125  0.23170136  0.92754396     2.77540
O646        O  0.25000987  0.24035156  0.96941024    -0.96640
O647        O  0.37507376  0.27557248  0.94509261    -0.77470
Zr648      Zr  0.18139207  0.16799093  0.88798658     2.70070
O649        O  0.14015797  0.18712677  0.92673254    -0.78710
O650        O  0.09129859  0.13568273  0.87363978    -0.97800
Zr651      Zr  0.29250927  0.20711858  0.81169900     2.21500
Zr652      Zr  0.28225145  0.16970802  0.95074795     2.11130
O653        O  0.23911648  0.19076880  0.94309868    -2.46480
O654        O  0.24855377  0.20958236  0.87387084    -0.78510
O655        O  0.34996304  0.21064285  0.93008277    -0.70700
O656        O  0.22550956  0.16445032  0.82755436    -2.31660
O657        O  0.35025405  0.22820997  0.86681468    -2.27870
O658        O  0.21964612  0.14572783  0.89923575    -0.72460
H659        H  0.34409973  0.15771317  0.89179694     0.79540
H660        H  0.20266862  0.15548917  0.80531846     0.80620
H661        H  0.22117602  0.19167103  0.96790488     0.82850
H662        H  0.37464777  0.24590420  0.86424293     0.80460
H663        H  0.16842638  0.10664188  0.80086825     0.43490
H664        H  0.08436385  0.11987724  0.88341923     0.42460
H665        H  0.13598733  0.19627617  0.90644822     0.42140
H666        H  0.21652010  0.23040080  0.95590254     0.40070
H667        H  0.35735857  0.28145533  0.96481730     0.43210
H668        H  0.50118719  0.24736987  0.86272391     0.37990
H669        H  0.45631274  0.19831086  0.81063145     0.44110
H670        H  0.30390212  0.11303762  0.80558105     0.40520
H671        H  0.24338567  0.23214042  0.99534973     0.45440
H672        H  0.49750774  0.22646339  0.88625823     0.44160
H673        H  0.24403076  0.09344306  0.81362627     0.44300
H674        H  0.07019822  0.14012847  0.89211314     0.44660
O675        O  0.77256667  0.35832051  0.51554195    -0.74210
O676        O  0.68452331  0.33631688  0.51953821    -0.53120
C677        C  0.72901481  0.35398477  0.50573779     0.79520
O678        O  0.73074006  0.23941919  0.59911050    -0.58810
O679        O  0.79734322  0.26615694  0.64033734    -0.51840
C680        C  0.76713204  0.24433126  0.62321484     0.71530
O681        O  0.63654113  0.25321834  0.51588966    -0.73370
O682        O  0.61202014  0.28113607  0.52651854    -0.53940
C683        C  0.60733682  0.26085357  0.51031936     0.77530
O684        O  0.87581563  0.34524613  0.58097137    -0.58520
O685        O  0.86119784  0.30957179  0.59818228    -0.51640
C686        C  0.88147408  0.32726081  0.57218406     0.74120
Zr687      Zr  0.79798187  0.33641265  0.55523411     2.54710
O688        O  0.80574383  0.31966860  0.98737036    -0.79080
O689        O  0.87031253  0.37865040  0.53790659    -0.92500
Zr690      Zr  0.69467430  0.26144389  0.56671274     2.64680
O691        O  0.73209706  0.25152261  0.00547351    -0.97450
O692        O  0.62429853  0.21702287  0.56946400    -0.79520
O693        O  0.71427512  0.30084571  0.54264091    -0.82870
O694        O  0.77694121  0.29633384  0.57580963    -2.17580
O695        O  0.81438588  0.35745085  0.71889842    -0.66260
O696        O  0.83420198  0.32805107  0.70528482    -0.50830
C697        C  0.83890964  0.34729312  0.72656371     0.72510
O698        O  0.54931398  0.26523620  0.63978722    -0.59170
O699        O  0.56882870  0.29321900  0.59236241    -0.51150
C700        C  0.53582911  0.27370631  0.61231677     0.74310
O701        O  0.66020611  0.26187449  0.71922770    -0.70570
O702        O  0.72667783  0.26008284  0.68955762    -0.49240
C703        C  0.68239806  0.25003899  0.71069024     0.75690
O704        O  0.71777769  0.37251469  0.64666653    -0.65900
O705        O  0.66027391  0.35131433  0.59600289    -0.53090
C706        C  0.68707847  0.37070686  0.62068474     0.74070
Zr707      Zr  0.75124996  0.34867520  0.66729819     2.77540
O708        O  0.71096170  0.35347867  0.73146111    -0.96640
O709        O  0.82238809  0.39300486  0.66802446    -0.77470
Zr710      Zr  0.63383924  0.27634490  0.66769632     2.70070
O711        O  0.59153326  0.28140959  0.73041423    -0.78710
O712        O  0.56794580  0.23188640  0.65274299    -0.97800
Zr713      Zr  0.66075296  0.31305141  0.57894168     2.21500
Zr714      Zr  0.78398251  0.29931572  0.64855729     2.11130
O715        O  0.72330954  0.30782649  0.68474169    -2.46480
O716        O  0.66211652  0.31744552  0.65148455    -0.78510
O717        O  0.80763655  0.33954365  0.62784195    -0.70700
O718        O  0.63655210  0.27256651  0.59705595    -2.31660
O719        O  0.74588446  0.34679800  0.59515659    -2.27870
O720        O  0.69524412  0.26703335  0.63705507    -0.72460
H721        H  0.79414629  0.28997519  0.55827079     0.79540
H722        H  0.60225824  0.25934406  0.58881913     0.80620
H723        H  0.72639544  0.30833242  0.71378158     0.82850
H724        H  0.75529165  0.36293196  0.58679094     0.80460
H725        H  0.59215461  0.21688974  0.57436596     0.43490
H726        H  0.58570952  0.22295096  0.65206477     0.42460
H727        H  0.61456234  0.29948812  0.73898835     0.42140
H728        H  0.71059337  0.34197181  0.74980216     0.40070
H729        H  0.83701914  0.39571293  0.63950739     0.43210
H730        H  0.86049684  0.39019989  0.55069280     0.37990
H731        H  0.78796534  0.32393443  0.96960278     0.44110
H732        H  0.75607037  0.26782658  0.99259923     0.40520
H733        H  0.73722930  0.37061418  0.74251189     0.45440
H734        H  0.86964359  0.37947566  0.50811188     0.44160
H735        H  0.75501609  0.24713607  0.01559703     0.44300
H736        H  0.54234324  0.22587626  0.67622338     0.44660
O737        O  0.99561968  0.20257119  0.52219553    -0.74210
O738        O  0.93841790  0.18829179  0.97387446    -0.53120
C739        C  0.97951510  0.20622275  0.49129158     0.79520
O740        O  0.00202006  0.14898134  0.64947935    -0.58810
O741        O  0.95276148  0.15296610  0.70130078    -0.51840
C742        C  0.99404136  0.15356789  0.68735047     0.71530
O743        O  0.98699387  0.16020648  0.52171856    -0.73370
O744        O  0.95214778  0.14196747  0.96429798    -0.53940
C745        C  0.98905067  0.14952152  0.98791506     0.77530
O746        O  0.96591301  0.21402295  0.65873597    -0.58520
O747        O  0.92470169  0.18606288  0.70884075    -0.51640
C748        C  0.95357944  0.20854268  0.69615854     0.74120
Zr749      Zr  0.95371612  0.19800013  0.58929970     2.54710
O750        O  0.04510106  0.23183572  0.59420917    -0.79080
O751        O  0.94341836  0.23262437  0.58330961    -0.92500
Zr752      Zr  0.96173325  0.13895060  0.58396949     2.64680
O753        O  0.04488436  0.14312949  0.57565489    -0.97450
O754        O  0.94474570  0.09694747  0.56921876    -0.79520
O755        O  0.95803594  0.16788053  0.54704746    -0.82870
O756        O  0.95784492  0.16987936  0.62734141    -2.17580
O757        O  0.76417665  0.14608713  0.65437987    -0.66260
O758        O  0.83075182  0.16914421  0.69251054    -0.50830
C759        C  0.79033441  0.16566707  0.67656767     0.72510
O760        O  0.78346521  0.07955276  0.50756320    -0.59170
O761        O  0.83788943  0.10936885  0.96152446    -0.51150
C762        C  0.79890688  0.08754098  0.47068497     0.74310
O763        O  0.81827973  0.07938145  0.64518493    -0.70570
O764        O  0.84010045  0.10712803  0.70079932    -0.49240
C765        C  0.82698693  0.08527773  0.68378301     0.75690
O766        O  0.79731610  0.16783932  0.52665633    -0.65900
O767        O  0.80603534  0.14368010  0.47792809    -0.53090
C768        C  0.78190853  0.15410858  0.49438513     0.74070
Zr769      Zr  0.80108982  0.15176579  0.58685409     2.77540
O770        O  0.70897509  0.12395576  0.57550329    -0.96640
O771        O  0.80171123  0.18967587  0.58375427    -0.77470
Zr772      Zr  0.81192583  0.09378515  0.57981115     2.70070
O773        O  0.71877585  0.06767327  0.59645162    -0.78710
O774        O  0.81050384  0.05553812  0.56170805    -0.97800
Zr775      Zr  0.88551822  0.14674433  0.50263948     2.21500
Zr776      Zr  0.87802942  0.14744925  0.66768632     2.11130
O777        O  0.80302226  0.12243468  0.62577917    -2.46480
O778        O  0.80669349  0.12230044  0.54266266    -0.78510
O779        O  0.87445982  0.17547188  0.62744834    -0.70700
O780        O  0.89030807  0.11674537  0.53987870    -2.31660
O781        O  0.88090041  0.17652302  0.54870852    -2.27870
O782        O  0.88396999  0.11722489  0.62258784    -0.72460
H783        H  0.98845698  0.18106175  0.64257220     0.79540
H784        H  0.89394587  0.10528505  0.52081224     0.80620
H785        H  0.77185713  0.11214768  0.64261728     0.82850
H786        H  0.88340975  0.18960537  0.53425113     0.80460
H787        H  0.96201946  0.09776790  0.54199796     0.43490
H788        H  0.83748776  0.05708666  0.57799176     0.42460
H789        H  0.70358362  0.07334374  0.57864153     0.42140
H790        H  0.69358648  0.11624477  0.60209121     0.40070
H791        H  0.83849700  0.20380764  0.58613705     0.43210
H792        H  0.97912689  0.24795559  0.58472957     0.37990
H793        H  0.06297169  0.22301329  0.59515202     0.44110
H794        H  0.07051246  0.16062531  0.58568360     0.40520
H795        H  0.69726529  0.13536774  0.57329346     0.45440
H796        H  0.92587038  0.23345069  0.60955952     0.44160
H797        H  0.04371212  0.13224986  0.59578979     0.44300
H798        H  0.77715408  0.04187092  0.57409258     0.44660
O799        O  0.14611779  0.29956240  0.85800808    -0.74210
O800        O  0.19887195  0.32887924  0.90577450    -0.53120
C801        C  0.18370281  0.30900013  0.88181154     0.79520
O802        O  0.15687732  0.38668204  0.75964435    -0.58810
O803        O  0.08293040  0.38498892  0.77563221    -0.51840
C804        C  0.12863280  0.39510437  0.75666047     0.71530
O805        O  0.25972442  0.38425302  0.84458175    -0.73370
O806        O  0.25416776  0.38322860  0.91314061    -0.53940
C807        C  0.27814928  0.38508838  0.87870889     0.77530
O808        O  0.00374922  0.29688325  0.82125661    -0.58520
O809        O  0.99359170  0.31489392  0.77314021    -0.51640
C810        C  0.98943794  0.29563248  0.78573553     0.74120
Zr811      Zr  0.09226789  0.31030968  0.83074126     2.54710
O812        O  0.12651896  0.30865901  0.76172196    -0.79080
O813        O  0.05058664  0.26523309  0.81463105    -0.92500
Zr814      Zr  0.18506235  0.38373347  0.82279447     2.64680
O815        O  0.24648598  0.38866047  0.76643371    -0.97450
O816        O  0.23850294  0.42966459  0.82803344    -0.79340
O817        O  0.17081307  0.34780214  0.85035024    -0.82870
O818        O  0.10609802  0.34564886  0.80034293    -2.17580
O819        O  0.94255733  0.30088191  0.89319270    -0.66260
O820        O  0.94745873  0.33299643  0.86952950    -0.50830
C821        C  0.92693233  0.31538831  0.89580258     0.72510
O822        O  0.13029951  0.39953378  0.97739551    -0.59170
O823        O  0.17034498  0.37904072  0.98423939    -0.51150
C824        C  0.15534591  0.39367163  0.99772228     0.74310
O825        O  0.01961695  0.39011114  0.87711255    -0.70570
O826        O  0.03772290  0.38568622  0.81218543    -0.49240
C827        C  0.00822639  0.38737875  0.83864984     0.75690
O828        O  0.06650074  0.32280366  0.98729323    -0.65900
O829        O  0.14039240  0.32601706  0.97479917    -0.53090
C830        C  0.09290501  0.31318820  0.98767300     0.74070
Zr831      Zr  0.01988834  0.31922163  0.92902078     2.77540
O832        O  0.98841816  0.33077797  0.99146771    -0.96640
O833        O  0.95902425  0.27451078  0.93958428    -0.77470
Zr834      Zr  0.09904686  0.39391411  0.90962808     2.70070
O835        O  0.06675800  0.41397961  0.95802202    -0.78710
O836        O  0.16036699  0.43794733  0.89381525    -0.97800
Zr837      Zr  0.16281659  0.35476836  0.92185238     2.21500
Zr838      Zr  0.03349947  0.34903245  0.82457107     2.11130
O839        O  0.02740194  0.35404462  0.89849875    -2.46480
O840        O  0.09279978  0.35963024  0.94094841    -0.78510
O841        O  0.02586605  0.31515903  0.85735445    -0.70700
O842        O  0.17442852  0.39136137  0.89353710    -2.31660
O843        O  0.08782743  0.31453863  0.90282154    -2.27870
O844        O  0.11311973  0.38746046  0.84060459    -0.72460
H845        H  0.10605108  0.34262960  0.77104538     0.79540
H846        H  0.20544252  0.40658074  0.90344395     0.80620
H847        H  0.00436787  0.35750576  0.91465972     0.82850
H848        H  0.08458618  0.30007037  0.91306199     0.80460
H849        H  0.27032525  0.43394376  0.84077678     0.43490
H850        H  0.19452066  0.44211355  0.90148113     0.42460
H851        H  0.03562646  0.39974828  0.97174193     0.42140
H852        H  0.01770410  0.34783251  0.00015423     0.40070
H853        H  0.96807978  0.26599267  0.91700650     0.43210
H854        H  0.04301227  0.25777179  0.84146715     0.37990
H855        H  0.16252044  0.31372544  0.76535721     0.44110
H856        H  0.22580744  0.37441583  0.74660399     0.40520
H857        H  0.98428045  0.31969845  0.01256406     0.45440
H858        H  0.07843861  0.26343883  0.80131290     0.44160
H859        H  0.25571633  0.40392837  0.75289402     0.44300
H860        H  0.16292232  0.43788495  0.86361737     0.44660
O861        O  0.35483364  0.09493672  0.66014481    -0.74210
O862        O  0.42329778  0.12520671  0.62153772    -0.53120
C863        C  0.38133466  0.11687534  0.64465981     0.79520
O864        O  0.51473016  0.04883831  0.69267928    -0.58810
O865        O  0.43797398  0.01122389  0.69046115    -0.51840
C866        C  0.48635300  0.02495444  0.69667414     0.71530
O867        O  0.54677216  0.12600407  0.69042345    -0.73370
O868        O  0.52701425  0.14177212  0.64121783    -0.53940
C869        C  0.55006703  0.14431797  0.67396452     0.77530
O870        O  0.28730321  0.01147938  0.68554130    -0.58520
O871        O  0.32467217  0.48915044  0.67293286    -0.51640
C872        C  0.28614226  0.49078064  0.68607171     0.74120
Zr873      Zr  0.35265709  0.05605353  0.66374942     2.54710
O874        O  0.35032302  0.06595965  0.73684345    -0.79080
O875        O  0.26397253  0.04433474  0.65815429    -0.92500
Zr876      Zr  0.49817524  0.08013341  0.67984724     2.64680
O877        O  0.46795662  0.07888903  0.75111835    -0.97450
O878        O  0.58387185  0.10030306  0.70687124    -0.79520
O879        O  0.44167371  0.09109724  0.66172575    -0.82870
O880        O  0.40955523  0.04544201  0.68328481    -2.17580
O881        O  0.30553485  0.49527350  0.55986997    -0.66260
O882        O  0.33589856  0.47865887  0.59788971    -0.50830
C883        C  0.30151023  0.47683076  0.57665310     0.72510
O884        O  0.53843176  0.09146659  0.51385349    -0.59170
O885        O  0.55287452  0.12615258  0.54932559    -0.51150
C886        C  0.56796682  0.11508252  0.52205548     0.74310
O887        O  0.51467360  0.02228139  0.56319103    -0.70570
O888        O  0.44472513  0.49283957  0.60109623    -0.49240
C889        C  0.48572613  0.00006942  0.57724862     0.75690
O890        O  0.37302180  0.07095670  0.51196164    -0.65900
O891        O  0.43216142  0.11094992  0.53704530    -0.53090
C892        C  0.39580514  0.09499916  0.51299758     0.74070
Zr893      Zr  0.37237721  0.03923053  0.54702435     2.77540
O894        O  0.39460925  0.02565348  0.98138129    -0.96640
O895        O  0.29115616  0.02537609  0.51698813    -0.77470
Zr896      Zr  0.51489532  0.06076124  0.56290098     2.70070
O897        O  0.53406915  0.04581617  0.99733600    -0.78710
O898        O  0.60655843  0.08194364  0.57397235    -0.97800
Zr899      Zr  0.47018527  0.10573774  0.59390385     2.21500
Zr900      Zr  0.40399542  0.01497420  0.63192718     2.11130
O901        O  0.42696554  0.02656001  0.56290789    -2.46480
O902        O  0.46051208  0.07336129  0.54463522    -0.78510
O903        O  0.34654770  0.02568302  0.61419755    -0.70700
O904        O  0.52635547  0.09371396  0.61201986    -2.31660
O905        O  0.37999222  0.07069117  0.59609249    -2.27870
O906        O  0.49256815  0.04896500  0.63078339    -0.72460
H907        H  0.39894151  0.03850337  0.70994727     0.79540
H908        H  0.56227005  0.10782626  0.61156876     0.80620
H909        H  0.42196257  0.01267725  0.54468128     0.82850
H910        H  0.35806096  0.07590015  0.58869252     0.80460
H911        H  0.60715194  0.10259197  0.68251321     0.43490
H912        H  0.60768449  0.07224672  0.59509700     0.42460
H913        H  0.50173707  0.03791685  0.98249359     0.42140
H914        H  0.36396965  0.00836747  0.97584157     0.40070
H915        H  0.27054557  0.02779645  0.53951594     0.43210
H916        H  0.26498865  0.05184484  0.63285708     0.37990
H917        H  0.37718904  0.08426703  0.74009668     0.44110
H918        H  0.48253488  0.07112917  0.76468644     0.40520
H919        H  0.39351758  0.03597462  0.96142332     0.45440
H920        H  0.25859081  0.05424594  0.68061603     0.44160
H921        H  0.48778853  0.09676415  0.76143320     0.44300
H922        H  0.62088564  0.07777445  0.54869055     0.44660
O923        O  0.48960546  0.39129423  0.83972069    -0.74210
O924        O  0.49112791  0.39080809  0.90613821    -0.53120
C925        C  0.46558455  0.38656737  0.87463660     0.79520
O926        O  0.66166935  0.42353465  0.71618303    -0.58810
O927        O  0.67607357  0.46168421  0.70537852    -0.51840
C928        C  0.67235428  0.44090900  0.69302190     0.71530
O929        O  0.59089033  0.37144153  0.81148350    -0.73370
O930        O  0.54834396  0.37075660  0.87222775    -0.53940
C931        C  0.55648886  0.35982515  0.83984213     0.77530
O932        O  0.54597257  0.45958578  0.75890327    -0.58520
O933        O  0.62898302  0.48614668  0.73312143    -0.51640
C934        C  0.58038021  0.47684499  0.73527827     0.74120
Zr935      Zr  0.53151547  0.43275834  0.81321393     2.54710
O936        O  0.46339851  0.40888195  0.76471526    -0.79080
O937        O  0.46943728  0.44201425  0.84575408    -0.92500
Zr938      Zr  0.62602128  0.41104298  0.78336104     2.64680
O939        O  0.55336428  0.38254297  0.74025867    -0.97450
O940        O  0.67593328  0.39286433  0.76070391    -0.79520
O941        O  0.55767874  0.40602459  0.82780814    -0.82870
O942        O  0.59832474  0.43682230  0.76747014    -2.17580
O943        O  0.64465583  0.01146179  0.83903966    -0.66260
O944        O  0.71196241  0.02348188  0.79621023    -0.50830
C945        C  0.69083886  0.02849609  0.82797304     0.72510
O946        O  0.72627247  0.43632091  0.90733680    -0.59170
O947        O  0.64183048  0.40928954  0.93183480    -0.51150
C948        C  0.69070314  0.41772310  0.92860820     0.74310
O949        O  0.79852833  0.50272891  0.81563585    -0.70570
O950        O  0.75421235  0.48246850  0.76253175    -0.49240
C951        C  0.79141547  0.50272723  0.77755057     0.75690
O952        O  0.58194354  0.46988924  0.95231285    -0.65900
O953        O  0.55997760  0.43027789  0.96307221    -0.53090
C954        C  0.56108485  0.45077707  0.97412818     0.74070
Zr955      Zr  0.63368531  0.48398489  0.89017302     2.77540
O956        O  0.70594605  0.00856150  0.93499979    -0.96640
O957        O  0.60298778  0.00894115  0.92522792    -0.77470
Zr958      Zr  0.73271762  0.46428737  0.85738935     2.70070
O959        O  0.79070029  0.49349953  0.90983634    -0.78710
O960        O  0.79381505  0.45328748  0.83013415    -0.97800
Zr961      Zr  0.58551702  0.41568171  0.89624707     2.21500
Zr962      Zr  0.67326411  0.47819866  0.77611201     2.11130
O963        O  0.70349046  0.48990313  0.84497961    -2.46480
O964        O  0.66163247  0.45783638  0.90413794    -0.78510
O965        O  0.60462956  0.47405795  0.82251788    -0.70700
O966        O  0.65669316  0.42199635  0.84977986    -2.31660
O967        O  0.55885633  0.44280276  0.88137541    -2.27870
O968        O  0.70148776  0.45199568  0.79025628    -0.72460
H969        H  0.58670816  0.43304794  0.73996353     0.79540
H970        H  0.66514275  0.40995817  0.85393164     0.80620
H971        H  0.73274111  0.50694785  0.84884408     0.82850
H972        H  0.52964280  0.44012346  0.89888749     0.80460
H973        H  0.71152446  0.40570700  0.76946183     0.43490
H974        H  0.77372998  0.43466366  0.83076733     0.42460
H975        H  0.80732553  0.51042520  0.89900845     0.42140
H976        H  0.73699801  0.01967296  0.91762585     0.40070
H977        H  0.56997359  0.00284098  0.91249619     0.43210
H978        H  0.45497396  0.43226585  0.87062279     0.37990
H979        H  0.48101755  0.40639244  0.73986988     0.44110
H980        H  0.52327546  0.38233387  0.75389504     0.40520
H981        H  0.69832697  0.01981051  0.95214820     0.45440
H982        H  0.44014416  0.43370551  0.82733974     0.44160
H983        H  0.56064862  0.39120468  0.71474221     0.44300
H984        H  0.79864318  0.45655707  0.80073121     0.44660
C985        C  0.51396679  0.47505506  0.69818055     0.24670
C986        C  0.56321572  0.48927029  0.71408844    -0.23430
C987        C  0.58906602  0.01545289  0.72118249     0.19580
C988        C  0.56346339  0.02702154  0.71645826     0.24620
C989        C  0.51225196  0.01255058  0.70350455    -0.23380
C990        C  0.48838878  0.48660625  0.69281112     0.19520
F991        F  0.44011212  0.47222896  0.67794351    -0.13340
F992        F  0.48943400  0.44972737  0.69061121    -0.15700
F993        F  0.58800956  0.05211139  0.72662133    -0.15700
F994        F  0.63668535  0.02938604  0.73732953    -0.13340
C995        C  0.55170047  0.98847066  0.56403929     0.24670
C996        C  0.50015725  0.48168185  0.56242462    -0.23430
C997        C  0.46582497  0.45971180  0.53903086     0.19580
C998        C  0.48407454  0.44663033  0.51423472     0.24620
C999        C  0.53661693  0.45445133  0.01326684    -0.23380
C1000       C  0.56943782  0.47486284  0.54027968     0.19520
F1001       F  0.62080695  0.98381803  0.03942950    -0.13340
F1002       F  0.58612967  0.00956209  0.58620347    -0.15700
F1003       F  0.45214233  0.42880413  0.48656058    -0.15700
F1004       F  0.41613355  0.45281720  0.53589858    -0.13340
C1005       C  0.22865972  0.44300641  0.68405345     0.24670
C1006       C  0.23758027  0.46627585  0.70075388    -0.23430
C1007       C  0.20159028  0.46498390  0.73201931     0.19580
C1008       C  0.16123959  0.44137573  0.74802526     0.24620
C1009       C  0.15454973  0.41838676  0.73205132    -0.23380
C1010       C  0.18738974  0.41979059  0.69832385     0.19520
F1011       F  0.18267367  0.39840983  0.68130787    -0.13340
F1012       F  0.26204312  0.44245065  0.65508112    -0.15700
F1013       F  0.13174000  0.44127341  0.78127790    -0.15700
F1014       F  0.20790454  0.48659089  0.74941208    -0.13340
C1015       C  0.21460665  0.40759983  0.55343301     0.24670
C1016       C  0.17369970  0.40716256  0.53732427    -0.23430
C1017       C  0.16629409  0.42672940  0.04927984     0.19580
C1018       C  0.20726696  0.44940554  0.56541571     0.24620
C1019       C  0.25426402  0.45190930  0.57097874    -0.23380
C1020       C  0.25608603  0.43034398  0.56867406     0.19520
F1021       F  0.29976132  0.43175187  0.57694344    -0.13340
F1022       F  0.21903248  0.38751247  0.54787969    -0.15700
F1023       F  0.20261803  0.46939334  0.07218697    -0.15700
F1024       F  0.12321574  0.42540370  0.03950601    -0.13340
C1025       C  0.38619852  0.37602011  0.84188716     0.24670
C1026       C  0.41228205  0.38098697  0.87780427    -0.23430
C1027       C  0.39126412  0.38516428  0.91480151     0.19580
C1028       C  0.34952091  0.38795082  0.91510392     0.24620
C1029       C  0.32635596  0.38534825  0.87827476    -0.23380
C1030       C  0.34467624  0.37875199  0.84184547     0.19520
F1031       F  0.32180227  0.37428006  0.80604108    -0.13340
F1032       F  0.40071955  0.36827770  0.80654742    -0.15700
F1033       F  0.33148506  0.39276624  0.95159579    -0.15700
F1034       F  0.41062310  0.38615370  0.95064549    -0.13340
C1035       C  0.79807490  0.06868831  0.90122387     0.24670
C1036       C  0.77029740  0.07172170  0.93485035    -0.23430
C1037       C  0.71952280  0.06490462  0.92972756     0.19580
C1038       C  0.69687790  0.05478643  0.89176851     0.24620
C1039       C  0.72229809  0.04872768  0.85967903    -0.23380
C1040       C  0.77392493  0.05686347  0.86461167     0.19520
F1041       F  0.79956135  0.05117351  0.83559985    -0.13340
F1042       F  0.84802837  0.07599414  0.90460092    -0.15700
F1043       F  0.64946974  0.05030746  0.88654769    -0.15700
F1044       F  0.69184720  0.06787492  0.96149826    -0.13340
C1045       C  0.85129509  0.07078991  0.74386339     0.24670
C1046       C  0.82308352  0.06531191  0.70842146    -0.23430
C1047       C  0.79551891  0.04010107  0.69284566     0.19580
C1048       C  0.79322288  0.02118462  0.71278020     0.24620
C1049       C  0.81377343  0.02557925  0.75160096    -0.23380
C1050       C  0.84766596  0.05115202  0.76457537     0.19520
F1051       F  0.87767275  0.05721237  0.79671757    -0.13340
F1052       F  0.88321616  0.09507708  0.75798027    -0.15700
F1053       F  0.77070165  0.99818877  0.69304728    -0.15700
F1054       F  0.76977010  0.03323369  0.65785154    -0.13340
C1055       C  0.71310688  0.16389575  0.50085180     0.24670
C1056       C  0.73017975  0.14835254  0.48280822    -0.23430
C1057       C  0.69196802  0.12440559  0.46717138     0.19580
C1058       C  0.63871063  0.11457072  0.47608128     0.24620
C1059       C  0.62215005  0.12841844  0.50161756    -0.23380
C1060       C  0.66014581  0.15388481  0.51117676     0.19520
F1061       F  0.64675831  0.16876413  0.53293978    -0.13340
F1062       F  0.74836524  0.18831230  0.51273726    -0.15700
F1063       F  0.60373053  0.09075680  0.46162260    -0.15700
F1064       F  0.70611412  0.10980799  0.44577955    -0.13340
C1065       C  0.93556059  0.22821990  0.75798743     0.24670
C1066       C  0.96901798  0.23035087  0.72443445    -0.23430
C1067       C  0.00841980  0.25450382  0.71103613     0.19580
C1068       C  0.01052353  0.27575416  0.72787291     0.24620
C1069       C  0.97613616  0.27343487  0.76034059    -0.23380
C1070       C  0.93953439  0.24976232  0.77605114     0.19520
F1071       F  0.90783371  0.24765595  0.80908158    -0.13340
F1072       F  0.89703827  0.20534098  0.77163462    -0.15700
F1073       F  0.04770738  0.29875034  0.71378762    -0.15700
F1074       F  0.04352380  0.25740844  0.68027734    -0.13340
C1075       C  0.06029524  0.24642033  0.47319784     0.24670
C1076       C  0.00620390  0.23246875  0.98099226    -0.23430
C1077       C  0.98199258  0.24513541  0.99412543     0.19580
C1078       C  0.01162575  0.27122907  0.00171369     0.24620
C1079       C  0.06537518  0.28557773  0.99142576    -0.23380
C1080       C  0.08959935  0.27277190  0.47753206     0.19520
F1081       F  0.14156291  0.28559106  0.46845360    -0.13340
F1082       F  0.08485738  0.23437036  0.46268322    -0.15700
F1083       F  0.98719862  0.28240060  0.01864929    -0.15700
F1084       F  0.92980827  0.23203372  0.00240868    -0.13340
C1085       C  0.87559636  0.29948025  0.00709524     0.24670
C1086       C  0.89305855  0.32341382  0.02668220    -0.23430
C1087       C  0.91466554  0.34388932  0.00054817     0.19580
C1088       C  0.91653141  0.34052579  0.95735082     0.24620
C1089       C  0.90325069  0.31713032  0.93801589    -0.23380
C1090       C  0.88050934  0.29644280  0.96388209     0.19520
F1091       F  0.86462970  0.27308427  0.94731227    -0.13340
F1092       F  0.85560987  0.27902671  0.52966629    -0.15700
F1093       F  0.93412248  0.36074373  0.93479328    -0.15700
F1094       F  0.93759554  0.36780808  0.01688494    -0.13340
C1095       C  0.89646218  0.38176260  0.78288200     0.24670
C1096       C  0.87525837  0.35761180  0.76203636    -0.23430
C1097       C  0.89250258  0.34301089  0.77356805     0.19580
C1098       C  0.93262218  0.35274105  0.79992257     0.24620
C1099       C  0.95488117  0.37654277  0.82160970    -0.23380
C1100       C  0.93559744  0.39103858  0.81233437     0.19520
F1101       F  0.95757070  0.41491177  0.82883442    -0.13340
F1102       F  0.88162094  0.39697085  0.77332139    -0.15700
F1103       F  0.95510577  0.33980955  0.79814255    -0.15700
F1104       F  0.87402945  0.31944288  0.75648488    -0.13340
C1105       C  0.73242715  0.19832985  0.63422809     0.24670
C1106       C  0.77320630  0.22397095  0.63634587    -0.23430
C1107       C  0.81803197  0.23049126  0.65677007     0.19580
C1108       C  0.82204623  0.21210502  0.67359145     0.24620
C1109       C  0.78171862  0.18637527  0.67072225    -0.23380
C1110       C  0.73637631  0.18000030  0.65123957     0.19520
F1111       F  0.69673204  0.15546386  0.64547863    -0.13340
F1112       F  0.68836816  0.19075279  0.61559104    -0.15700
F1113       F  0.86713469  0.21947500  0.69010586    -0.15700
F1114       F  0.85941999  0.25482142  0.65953823    -0.13340
C1115       C  0.72818480  0.43805281  0.63966571     0.24670
C1116       C  0.67962075  0.43446042  0.64994581    -0.23430
C1117       C  0.63533882  0.41230226  0.63381394     0.19580
C1118       C  0.63758764  0.39137525  0.62002041     0.24620
C1119       C  0.68497386  0.39329942  0.61955662    -0.23380
C1120       C  0.73085156  0.41744075  0.62530281     0.19520
F1121       F  0.77798667  0.42045466  0.62152491    -0.13340
F1122       F  0.77218845  0.45967411  0.65230152    -0.15700
F1123       F  0.59280529  0.36866199  0.61268572    -0.15700
F1124       F  0.58800199  0.40889576  0.64065480    -0.13340
C1125       C  0.68803402  0.36086509  0.45241777     0.24670
C1126       C  0.72833160  0.37107284  0.47943516    -0.23430
C1127       C  0.75953067  0.39739275  0.98749632     0.19580
C1128       C  0.74828197  0.41306745  0.97058685     0.24620
C1129       C  0.70533165  0.40242205  0.94618197    -0.23380
C1130       C  0.67647567  0.37635499  0.43615961     0.19520
F1131       F  0.63667963  0.36581217  0.41060598    -0.13340
F1132       F  0.65818367  0.33560582  0.44327310    -0.15700
F1133       F  0.77723032  0.43829495  0.97988857    -0.15700
F1134       F  0.79801105  0.40764964  0.01419755    -0.13340
C1135       C  0.66868582  0.20668224  0.71259295     0.24670
C1136       C  0.64926502  0.22212147  0.71746160    -0.23430
C1137       C  0.59449320  0.20964614  0.72136982     0.19580
C1138       C  0.56201558  0.18439925  0.70698108     0.24620
C1139       C  0.58285413  0.17010622  0.69427146    -0.23380
C1140       C  0.63467755  0.18044447  0.70358511     0.19520
F1141       F  0.65158419  0.16507531  0.70472286    -0.13340
F1142       F  0.71966846  0.21681070  0.71781081    -0.15700
F1143       F  0.51006053  0.17366954  0.70685399    -0.15700
F1144       F  0.57234051  0.22219770  0.73674777    -0.13340
C1145       C  0.03143996  0.16361000  0.75780303     0.24670
C1146       C  0.03762755  0.16166109  0.71496857    -0.23430
C1147       C  0.08751466  0.16850758  0.69814846     0.19580
C1148       C  0.12870822  0.17610430  0.72303914     0.24620
C1149       C  0.12196561  0.17719199  0.76573226    -0.23380
C1150       C  0.07283206  0.17119737  0.78275760     0.19520
F1151       F  0.06458778  0.17269176  0.82386436    -0.13340
F1152       F  0.98512347  0.15785879  0.77584205    -0.15700
F1153       F  0.17484604  0.18153343  0.70503278    -0.15700
F1154       F  0.09733324  0.16809214  0.65721027    -0.13340
C1155       C  0.06479085  0.11914192  0.96790882     0.24670
C1156       C  0.11246953  0.13821678  0.98465622    -0.23430
C1157       C  0.11754222  0.16006357  0.00306095     0.19580
C1158       C  0.07905701  0.16449749  0.99938342     0.24620
C1159       C  0.03197186  0.14592959  0.98134273    -0.23380
C1160       C  0.02435053  0.12283329  0.96679489     0.19520
F1161       F  0.97825516  0.10403926  0.45161785    -0.13340
F1162       F  0.05841867  0.09738989  0.45111906    -0.15700
F1163       F  0.08749066  0.18697943  0.01457038    -0.15700
F1164       F  0.16070794  0.17779875  0.02302945    -0.13340
C1165       C  0.26438958  0.30884859  0.88630661     0.24670
C1166       C  0.21141751  0.29598102  0.87845741    -0.23430
C1167       C  0.18601756  0.27095176  0.86156996     0.19580
C1168       C  0.21337387  0.25973675  0.85055805     0.24620
C1169       C  0.26661820  0.27282355  0.85720196    -0.23380
C1170       C  0.29180685  0.29738520  0.87579953     0.19520
F1171       F  0.34293221  0.31026864  0.88384377    -0.13340
F1172       F  0.28977874  0.33253214  0.90373855    -0.15700
F1173       F  0.18673655  0.23538065  0.83554679    -0.15700
F1174       F  0.13405817  0.25695354  0.85612047    -0.13340
C1175       C  0.35965225  0.09389902  0.94734723     0.24670
C1176       C  0.37340685  0.10400381  0.98753550    -0.23430
C1177       C  0.35477361  0.11818244  0.50661010     0.19580
C1178       C  0.32134203  0.12141607  0.98676160     0.24620
C1179       C  0.30715858  0.11136441  0.94631959    -0.23380
C1180       C  0.32765801  0.09798118  0.92657936     0.19520
F1181       F  0.31558200  0.08821961  0.88774518    -0.13340
F1182       F  0.37638843  0.07961541  0.92856587    -0.15700
F1183       F  0.30287238  0.13444875  0.00774805    -0.15700
F1184       F  0.36579257  0.12739073  0.54585085    -0.13340
C1185       C  0.39485688  0.15935585  0.66610065     0.24670
C1186       C  0.36131183  0.13334082  0.65588404    -0.23430
C1187       C  0.30739395  0.12210383  0.66282358     0.19580
C1188       C  0.28824012  0.13529391  0.68506076     0.24620
C1189       C  0.32244628  0.15989509  0.70150029    -0.23380
C1190       C  0.37565269  0.17245044  0.68948111     0.19520
F1191       F  0.40978232  0.19624923  0.70466860    -0.13340
F1192       F  0.44666269  0.17146023  0.65701633    -0.15700
F1193       F  0.23654251  0.12281033  0.69539686    -0.15700
F1194       F  0.27320666  0.09759786  0.65079210    -0.13340
C1195       C  0.50582408  0.31502792  0.86184819     0.24670
C1196       C  0.52301938  0.33211151  0.83131255    -0.23430
C1197       C  0.50944064  0.32252015  0.79051499     0.19580
C1198       C  0.47796866  0.29662482  0.78086240     0.24620
C1199       C  0.46127740  0.27959789  0.81121879    -0.23380
C1200       C  0.47630333  0.28904536  0.85181686     0.19520
F1201       F  0.46119767  0.27320804  0.88242028    -0.13340
F1202       F  0.51852152  0.32339546  0.90112645    -0.15700
F1203       F  0.46440767  0.28820444  0.74174392    -0.15700
F1204       F  0.52598928  0.33820500  0.75956727    -0.13340
C1205       C  0.48854026  0.19878121  0.98077821     0.24670
C1206       C  0.45529435  0.20651485  0.97650806    -0.23430
C1207       C  0.47440909  0.23224115  0.97698944     0.19580
C1208       C  0.52606445  0.25023532  0.98309108     0.24620
C1209       C  0.55941233  0.24278572  0.98997777    -0.23380
C1210       C  0.54057325  0.21678835  0.98745237     0.19520
F1211       F  0.57179469  0.20861112  0.49224806    -0.13340
F1212       F  0.47099717  0.17392988  0.97670601    -0.15700
F1213       F  0.54324534  0.27496651  0.98234712    -0.15700
F1214       F  0.44431746  0.24006652  0.96703473    -0.13340
C1215       C  0.46309675  0.27286762  0.58087846     0.24670
C1216       C  0.48031577  0.25963392  0.59873126    -0.23430
C1217       C  0.44860300  0.23300522  0.59471740     0.19580
C1218       C  0.40374750  0.22026773  0.57116224     0.24620
C1219       C  0.38910294  0.23371230  0.55037005    -0.23380
C1220       C  0.41867577  0.26026356  0.55731906     0.19520
F1221       F  0.40637422  0.27447955  0.53955936    -0.13340
F1222       F  0.49111941  0.29848449  0.58436913    -0.15700
F1223       F  0.37705037  0.19473831  0.56637047    -0.15700
F1224       F  0.46336299  0.21921508  0.61057915    -0.13340
O1225       O  0.43554075  0.73788856  0.31660852    -0.74210
O1226       O  0.37820995  0.74446248  0.29188202    -0.53120
C1227       C  0.42404375  0.75220882  0.30293316     0.79520
O1228       O  0.27946764  0.61801786  0.38521604    -0.58810
O1229       O  0.25252792  0.62604973  0.44681710    -0.51840
C1230       C  0.27602487  0.61760462  0.42465951     0.71530
O1231       O  0.29235937  0.65088916  0.26866367    -0.73370
O1232       O  0.30873779  0.68796550  0.24788275    -0.53940
C1233       C  0.30620289  0.66694555  0.24138555     0.77530
O1234       O  0.41608132  0.68968909  0.41691870    -0.58520
O1235       O  0.36449068  0.68133397  0.47493036    -0.51640
C1236       C  0.40862263  0.69012165  0.45549661     0.74120
Zr1237     Zr  0.39177717  0.70649377  0.36813070     2.54710
O1238       O  0.41954298  0.68522854  0.31789851    -0.79080
O1239       O  0.48232030  0.73658226  0.38610663    -0.92500
Zr1240     Zr  0.26310533  0.64184248  0.33971924     2.64680
O1241       O  0.26939566  0.60933435  0.30003350    -0.97450
O1242       O  0.17160305  0.60922957  0.33084177    -0.79520
O1243       O  0.32942954  0.68339752  0.31927439    -0.82870
O1244       O  0.32620221  0.66575958  0.38892497    -2.17580
O1245       O  0.35000524  0.73521393  0.49115193    -0.66260
O1246       O  0.32109649  0.69659561  0.51279523    -0.50830
C1247       C  0.34970309  0.72097583  0.51691668     0.72510
O1248       O  0.14797593  0.67235905  0.32748036    -0.59170
O1249       O  0.21220446  0.69503139  0.27952634    -0.51150
C1250       C  0.16376446  0.68224093  0.29252357     0.74310
O1251       O  0.16564275  0.63591497  0.43204783    -0.70570
O1252       O  0.20036482  0.65037939  0.49156382    -0.49240
C1253       C  0.16006149  0.63947764  0.47026028     0.75690
O1254       O  0.32054128  0.76230307  0.38148466    -0.65900
O1255       O  0.27807905  0.74123123  0.32398454    -0.53090
C1256       C  0.29145479  0.75859733  0.35290357     0.74070
Zr1257     Zr  0.30813114  0.73170136  0.42754387     2.77540
O1258       O  0.25000969  0.74035157  0.46940999    -0.96640
O1259       O  0.37507341  0.77557249  0.44509271    -0.77470
Zr1260     Zr  0.18139192  0.66799089  0.38798655     2.70070
O1261       O  0.14015788  0.68712674  0.42673258    -0.78710
O1262       O  0.09129840  0.63568271  0.37363985    -0.97800
Zr1263     Zr  0.29250904  0.70711855  0.31169894     2.21500
Zr1264     Zr  0.28225139  0.66970802  0.45074782     2.11130
O1265       O  0.23911639  0.69076879  0.44309861    -2.46480
O1266       O  0.24855358  0.70958232  0.37387080    -0.78510
O1267       O  0.34996296  0.71064285  0.43008261    -0.70700
O1268       O  0.22550938  0.66445028  0.32755430    -2.31660
O1269       O  0.35025393  0.72820996  0.36681458    -2.27870
O1270       O  0.21964601  0.64572780  0.39923567    -0.72460
H1271       H  0.34409965  0.65771316  0.39179678     0.79540
H1272       H  0.20266843  0.65548913  0.30531842     0.80620
H1273       H  0.22117595  0.69167102  0.46790482     0.82850
H1274       H  0.37464776  0.74590418  0.36424289     0.80460
H1275       H  0.16842619  0.60664184  0.30086819     0.43490
H1276       H  0.08436366  0.61987722  0.38341930     0.42460
H1277       H  0.13598686  0.69627599  0.40644821     0.42140
H1278       H  0.21652002  0.73040089  0.45590214     0.40070
H1279       H  0.35735802  0.78145532  0.46481721     0.43210
H1280       H  0.50118711  0.74736975  0.36272357     0.37990
H1281       H  0.45631198  0.69831091  0.31063037     0.44110
H1282       H  0.30390194  0.61303759  0.30558090     0.40520
H1283       H  0.24338524  0.73214035  0.49534944     0.45440
H1284       H  0.49750762  0.72646321  0.38625772     0.44160
H1285       H  0.24403061  0.59344303  0.31362619     0.44300
H1286       H  0.07019808  0.64012846  0.39211326     0.44660
O1287       O  0.77256681  0.85832070  0.01554238    -0.74210
O1288       O  0.68452345  0.83631703  0.01953860    -0.53120
C1289       C  0.72901494  0.85398493  0.00573821     0.79520
O1290       O  0.73074009  0.73941927  0.09911062    -0.58810
O1291       O  0.79734323  0.76615699  0.14033749    -0.51840
C1292       C  0.76713205  0.74433132  0.12321495     0.71530
O1293       O  0.63654126  0.75321851  0.01588985    -0.73370
O1294       O  0.61202017  0.78113621  0.02651887    -0.53940
C1295       C  0.60733688  0.76085373  0.01031963     0.77530
O1296       O  0.87581577  0.84524623  0.08097167    -0.58520
O1297       O  0.86119792  0.80957187  0.09818257    -0.51640
C1298       C  0.88147420  0.82726090  0.07218437     0.74120
Zr1299     Zr  0.79798200  0.83641279  0.05523447     2.54710
O1300       O  0.80574349  0.81966837  0.48737005    -0.79080
O1301       O  0.87031274  0.87865053  0.03790700    -0.92500
Zr1302     Zr  0.69467439  0.76144402  0.06671293     2.64680
O1303       O  0.73209677  0.75152236  0.50547340    -0.97450
O1304       O  0.62429863  0.71702299  0.06946407    -0.79520
O1305       O  0.71427525  0.80084587  0.04264119    -0.82870
O1306       O  0.77694130  0.79633396  0.07580989    -2.17580
O1307       O  0.81438604  0.85745086  0.21889883    -0.66260
O1308       O  0.83420203  0.82805105  0.20528511    -0.50830
C1309       C  0.83890979  0.84729311  0.22656405     0.72510
O1310       O  0.54931402  0.76523625  0.13978743    -0.59170
O1311       O  0.56882878  0.79321911  0.09236270    -0.51150
C1312       C  0.53582917  0.77370638  0.11231700     0.74310
O1313       O  0.66020616  0.76187453  0.21922792    -0.70570
O1314       O  0.72667787  0.76008288  0.18955783    -0.49240
C1315       C  0.68239810  0.75003902  0.21069044     0.75690
O1316       O  0.71777782  0.87251477  0.14666695    -0.65900
O1317       O  0.66027404  0.85131444  0.09600329    -0.53090
C1318       C  0.68707862  0.87070697  0.12068515     0.74070
Zr1319     Zr  0.75125005  0.84867526  0.16729863     2.77540
O1320       O  0.71096171  0.85347865  0.23146156    -0.96640
O1321       O  0.82238812  0.89300493  0.16802506    -0.77470
Zr1322     Zr  0.63383928  0.77634495  0.16769657     2.70070
O1323       O  0.59153319  0.78140958  0.23041447    -0.78710
O1324       O  0.56794589  0.73188645  0.15274317    -0.97800
Zr1325     Zr  0.66075306  0.81305153  0.07894203     2.21500
Zr1326     Zr  0.78398254  0.79931577  0.14855755     2.11130
O1327       O  0.72330958  0.80782652  0.18474200    -2.46480
O1328       O  0.66211661  0.81744560  0.15148491    -0.78510
O1329       O  0.80763665  0.83954373  0.12784232    -0.70700
O1330       O  0.63655218  0.77256662  0.09705620    -2.31660
O1331       O  0.74588457  0.84679810  0.09515701    -2.27870
O1332       O  0.69524416  0.76703341  0.13705527    -0.72460
H1333       H  0.79414640  0.78997532  0.05827103     0.79540
H1334       H  0.60225833  0.75934416  0.08881937     0.80620
H1335       H  0.72639546  0.80833243  0.21378189     0.82850
H1336       H  0.75529178  0.86293208  0.08679139     0.80460
H1337       H  0.59215472  0.71688986  0.07436612     0.43490
H1338       H  0.58570964  0.72295102  0.15206494     0.42460
H1339       H  0.61456292  0.79948796  0.23898917     0.42140
H1340       H  0.71059355  0.84197184  0.24980262     0.40070
H1341       H  0.83701921  0.89571305  0.13950800     0.43210
H1342       H  0.86049708  0.89020003  0.05069322     0.37990
H1343       H  0.78796495  0.82393418  0.46960249     0.44110
H1344       H  0.75607008  0.76782632  0.49259906     0.40520
H1345       H  0.73722921  0.87061418  0.24251231     0.45440
H1346       H  0.86964380  0.87947580  0.00811229     0.44160
H1347       H  0.75501579  0.74713582  0.51559694     0.44300
H1348       H  0.54234332  0.72587629  0.17622355     0.44660
O1349       O  0.99561993  0.70257137  0.02219555    -0.74210
O1350       O  0.93841752  0.68829155  0.47387440    -0.53120
C1351       C  0.97951539  0.70622293  0.99129158     0.79520
O1352       O  0.00201992  0.64898131  0.14947924    -0.58810
O1353       O  0.95276131  0.65296606  0.20130066    -0.51840
C1354       C  0.99404119  0.65356784  0.18735036     0.71530
O1355       O  0.98699389  0.66020656  0.02171846    -0.73370
O1356       O  0.95214760  0.64196730  0.46429807    -0.53940
C1357       C  0.98905051  0.64952137  0.48791512     0.77530
O1358       O  0.96591310  0.71402296  0.15873593    -0.58520
O1359       O  0.92470163  0.68606286  0.20884065    -0.51640
C1360       C  0.95357949  0.70854267  0.19615849     0.74120
Zr1361     Zr  0.95371614  0.69800018  0.08929964     2.54710
O1362       O  0.04510106  0.73183580  0.09420917    -0.79080
O1363       O  0.94341829  0.73262440  0.08330966    -0.92500
Zr1364     Zr  0.96173321  0.63895063  0.08396935     2.64680
O1365       O  0.04488429  0.64312949  0.07565479    -0.97450
O1366       O  0.94474561  0.59694749  0.06921855    -0.79520
O1367       O  0.95803597  0.66788059  0.04704736    -0.82870
O1368       O  0.95784487  0.66987937  0.12734131    -2.17580
O1369       O  0.76417663  0.64608716  0.15437969    -0.66260
O1370       O  0.83075171  0.66914419  0.19251045    -0.50830
C1371       C  0.79033434  0.66566707  0.17656756     0.72510
O1372       O  0.78346518  0.57955285  0.00756300    -0.59170
O1373       O  0.83788945  0.60936870  0.46152458    -0.51150
C1374       C  0.79890680  0.58754107  0.97068476     0.74310
O1375       O  0.81827969  0.57938147  0.14518470    -0.70570
O1376       O  0.84010034  0.60712803  0.20079913    -0.49240
C1377       C  0.82698686  0.58527774  0.18378279     0.75690
O1378       O  0.79731630  0.66783946  0.02665615    -0.65900
O1379       O  0.80603549  0.64368023  0.97792791    -0.53090
C1380       C  0.78190869  0.65410871  0.99438496     0.74070
Zr1381     Zr  0.80108986  0.65176588  0.08685392     2.77540
O1382       O  0.70897515  0.62395586  0.07550306    -0.96640
O1383       O  0.80171116  0.68967594  0.08375421    -0.77470
Zr1384     Zr  0.81192579  0.59378522  0.07981094     2.70070
O1385       O  0.71877581  0.56767337  0.09645138    -0.78710
O1386       O  0.81050370  0.55553816  0.06170780    -0.97800
Zr1387     Zr  0.88551832  0.64674444  0.00263931     2.21500
Zr1388     Zr  0.87802933  0.64744925  0.16768616     2.11130
O1389       O  0.80302221  0.62243473  0.12577897    -2.46480
O1390       O  0.80669357  0.62230055  0.04266248    -0.78510
O1391       O  0.87445980  0.67547194  0.12744824    -0.70700
O1392       O  0.89030807  0.61674544  0.03987851    -2.31660
O1393       O  0.88090050  0.67652312  0.04870839    -2.27870
O1394       O  0.88396991  0.61722491  0.12258767    -0.72460
H1395       H  0.98845692  0.68106175  0.14257211     0.79540
H1396       H  0.89394586  0.60528512  0.02081204     0.80620
H1397       H  0.77185706  0.61214772  0.14261706     0.82850
H1398       H  0.88340990  0.68960549  0.03425102     0.80460
H1399       H  0.96201940  0.59776794  0.04199777     0.43490
H1400       H  0.83748764  0.55708669  0.07799147     0.42460
H1401       H  0.70358359  0.57334380  0.07864120     0.42140
H1402       H  0.69358655  0.61624483  0.10209095     0.40070
H1403       H  0.83849693  0.70380772  0.08613695     0.43210
H1404       H  0.97912681  0.74795564  0.08472963     0.37990
H1405       H  0.06297168  0.72301338  0.09515229     0.44110
H1406       H  0.07051239  0.66062531  0.08568353     0.40520
H1407       H  0.69726535  0.63536786  0.07329332     0.45440
H1408       H  0.92587031  0.73345070  0.10955959     0.44160
H1409       H  0.04371200  0.63224985  0.09578968     0.44300
H1410       H  0.77715394  0.54187097  0.07409236     0.44660
O1411       O  0.14611810  0.79956243  0.35800875    -0.74210
O1412       O  0.19887192  0.82887919  0.40577545    -0.53120
C1413       C  0.18370291  0.80900012  0.38181242     0.79520
O1414       O  0.15688024  0.88668385  0.25964569    -0.58810
O1415       O  0.08293105  0.88498902  0.27563232    -0.51840
C1416       C  0.12863390  0.89510511  0.25666109     0.71530
O1417       O  0.25972563  0.88425421  0.34458392    -0.73370
O1418       O  0.25416775  0.88322844  0.41314266    -0.53940
C1419       C  0.27814996  0.88508905  0.37871100     0.77530
O1420       O  0.00374995  0.79688322  0.32125666    -0.58520
O1421       O  0.99359294  0.81489411  0.27314026    -0.51640
C1422       C  0.98943890  0.79563259  0.28573554     0.74120
Zr1423     Zr  0.09226873  0.81030992  0.33074161     2.54710
O1424       O  0.12652060  0.80865974  0.26172242    -0.79080
O1425       O  0.05058811  0.76523344  0.31463058    -0.92500
Zr1426     Zr  0.18506296  0.88373370  0.32279571     2.64680
O1427       O  0.24648432  0.88865807  0.26643471    -0.97450
O1428       O  0.23850483  0.92966482  0.32803398    -0.79340
O1429       O  0.17081354  0.84780232  0.35035131    -0.82870
O1430       O  0.10609908  0.84564924  0.30034351    -2.17580
O1431       O  0.94255748  0.80088189  0.39319247    -0.66260
O1432       O  0.94745918  0.83299649  0.36952931    -0.50830
C1433       C  0.92693255  0.81538831  0.39580230     0.72510
O1434       O  0.13029898  0.89953362  0.47739646    -0.59170
O1435       O  0.17034422  0.87904047  0.48424053    -0.51150
C1436       C  0.15534519  0.89367141  0.49772334     0.74310
O1437       O  0.01961696  0.89011103  0.37711314    -0.70570
O1438       O  0.03772355  0.88568641  0.31218607    -0.49240
C1439       C  0.00822670  0.88737876  0.33865037     0.75690
O1440       O  0.06650007  0.82280338  0.48729364    -0.65900
O1441       O  0.14039183  0.82601684  0.47480010    -0.53090
C1442       C  0.09290432  0.81318792  0.48767359     0.74070
Zr1443     Zr  0.01988822  0.81922139  0.42902085     2.77540
O1444       O  0.98841760  0.83077764  0.49146760    -0.96640
O1445       O  0.95902413  0.77451047  0.43958390    -0.77470
Zr1446     Zr  0.09904674  0.89391398  0.40962887     2.70070
O1447       O  0.06675709  0.91397916  0.45802273    -0.78710
O1448       O  0.16036706  0.93794722  0.39381620    -0.97800
Zr1449     Zr  0.16281644  0.85476826  0.42185344     2.21500
Zr1450     Zr  0.03350023  0.84903260  0.32457127     2.11130
O1451       O  0.02740262  0.85404444  0.39849867    -2.46480
O1452       O  0.09279940  0.85963001  0.44094915    -0.78510
O1453       O  0.02586655  0.81515907  0.35735451    -0.70700
O1454       O  0.17442855  0.89136133  0.39353832    -2.31660
O1455       O  0.08782760  0.81453855  0.40282195    -2.27870
O1456       O  0.11312018  0.88746058  0.34060537    -0.72460
H1457       H  0.10605280  0.84263039  0.27104587     0.79540
H1458       H  0.20544244  0.90658070  0.40344535     0.80620
H1459       H  0.00436799  0.85750567  0.41465990     0.82850
H1460       H  0.08458629  0.80007026  0.41306238     0.80460
H1461       H  0.27032557  0.93394381  0.34077973     0.43490
H1462       H  0.19452055  0.94211349  0.40148269     0.42460
H1463       H  0.03562569  0.89974774  0.47174261     0.42140
H1464       H  0.01770340  0.84783220  0.50015419     0.40070
H1465       H  0.96807983  0.76599245  0.41700610     0.43210
H1466       H  0.04301263  0.75777190  0.34146658     0.37990
H1467       H  0.16252221  0.81372641  0.26535783     0.44110
H1468       H  0.22580404  0.87441364  0.24660517     0.40520
H1469       H  0.98427981  0.81969814  0.51256400     0.45440
H1470       H  0.07844055  0.76343930  0.30131318     0.44160
H1471       H  0.25571729  0.90392637  0.25289488     0.44300
H1472       H  0.16292308  0.93788483  0.36361831     0.44660
O1473       O  0.35483369  0.59493686  0.16014468    -0.74210
O1474       O  0.42329791  0.62520685  0.12153767    -0.53120
C1475       C  0.38133475  0.61687548  0.14465971     0.79520
O1476       O  0.51473002  0.54883836  0.19267932    -0.58810
O1477       O  0.43797389  0.51122391  0.19046112    -0.51840
C1478       C  0.48635291  0.52495448  0.19667416     0.71530
O1479       O  0.54677212  0.62600413  0.19042355    -0.73370
O1480       O  0.52701436  0.64177222  0.14121791    -0.53940
C1481       C  0.55006706  0.64431804  0.17396461     0.77530
O1482       O  0.28730303  0.51147953  0.18554101    -0.58520
O1483       O  0.32467173  0.98915048  0.17293251    -0.51640
C1484       C  0.28614189  0.99078076  0.18607128     0.74120
Zr1485     Zr  0.35265711  0.55605367  0.16374933     2.54710
O1486       O  0.35032307  0.56595976  0.23684338    -0.79080
O1487       O  0.26397258  0.54433494  0.15815431    -0.92500
Zr1488     Zr  0.49817513  0.58013346  0.17984732     2.64680
O1489       O  0.46795635  0.57888905  0.25111839    -0.97450
O1490       O  0.58387163  0.60030308  0.20687150    -0.79520
O1491       O  0.44167373  0.59109736  0.16172576    -0.82870
O1492       O  0.40955510  0.54544208  0.18328482    -2.17580
O1493       O  0.30553514  0.99527363  0.05986964    -0.66260
O1494       O  0.33589868  0.97865897  0.09788948    -0.50830
C1495       C  0.30151048  0.97683088  0.07665275     0.72510
O1496       O  0.53843188  0.59146668  0.01385359    -0.59170
O1497       O  0.55287469  0.62615269  0.04932566    -0.51150
C1498       C  0.56796697  0.61508261  0.02205556     0.74310
O1499       O  0.51467359  0.52228145  0.06319113    -0.70570
O1500       O  0.44472502  0.99283962  0.10109622    -0.49240
C1501       C  0.48572605  0.50006947  0.07724867     0.75690
O1502       O  0.37302208  0.57095687  0.01196158    -0.65900
O1503       O  0.43216167  0.61095009  0.03704530    -0.53090
C1504       C  0.39580542  0.59499933  0.01299756     0.74070
Zr1505     Zr  0.37237737  0.53923069  0.04702430     2.77540
O1506       O  0.39460889  0.52565326  0.48138142    -0.96640
O1507       O  0.29115627  0.52537629  0.01698821    -0.77470
Zr1508     Zr  0.51489537  0.56076132  0.06290106     2.70070
O1509       O  0.53406897  0.54581608  0.49733590    -0.78710
O1510       O  0.60655848  0.58194366  0.07397237    -0.97800
Zr1511     Zr  0.47018542  0.60573787  0.09390387     2.21500
Zr1512     Zr  0.40399532  0.51497427  0.13192719     2.11130
O1513       O  0.42696558  0.52656011  0.06290792    -2.46480
O1514       O  0.46051224  0.57336142  0.04463525    -0.78510
O1515       O  0.34654773  0.52568315  0.11419748    -0.70700
O1516       O  0.52635551  0.59371404  0.11201995    -2.31660
O1517       O  0.37999235  0.57069132  0.09609243    -2.27870
O1518       O  0.49256806  0.54896506  0.13078346    -0.72460
H1519       H  0.39894132  0.53850343  0.20994727     0.79540
H1520       H  0.56227009  0.60782632  0.11156888     0.80620
H1521       H  0.42196261  0.51267736  0.04468130     0.82850
H1522       H  0.35806112  0.57590031  0.08869244     0.80460
H1523       H  0.60715181  0.60259201  0.18251351     0.43490
H1524       H  0.60768451  0.57224680  0.09509714     0.42460
H1525       H  0.50173684  0.53791671  0.48249355     0.42140
H1526       H  0.36396919  0.50836729  0.47584167     0.40070
H1527       H  0.27054574  0.52779666  0.03951606     0.43210
H1528       H  0.26498866  0.55184501  0.13285707     0.37990
H1529       H  0.37718891  0.58426716  0.24009661     0.44110
H1530       H  0.48253460  0.57112919  0.26468651     0.40520
H1531       H  0.39351740  0.53597447  0.46142346     0.45440
H1532       H  0.25859095  0.55424618  0.18061603     0.44160
H1533       H  0.48778822  0.59676417  0.26143326     0.44300
H1534       H  0.62088560  0.57777437  0.04869064     0.44660
O1535       O  0.48960586  0.89129463  0.33972131    -0.74210
O1536       O  0.49112849  0.89080838  0.40613876    -0.53120
C1537       C  0.46558509  0.88656784  0.37463729     0.79520
O1538       O  0.66166958  0.92353484  0.21618296    -0.58810
O1539       O  0.67607383  0.96168441  0.20537848    -0.51840
C1540       C  0.67235454  0.94090920  0.19302185     0.71530
O1541       O  0.59088950  0.87144151  0.31148299    -0.73370
O1542       O  0.54834400  0.87075671  0.37222766    -0.53940
C1543       C  0.55648842  0.85982521  0.33984188     0.77530
O1544       O  0.54597301  0.95958611  0.25890345    -0.58520
O1545       O  0.62898341  0.98614696  0.23312149    -0.51640
C1546       C  0.58038061  0.97684529  0.23527839     0.74120
Zr1547     Zr  0.53151586  0.93275864  0.31321407     2.54710
O1548       O  0.46339928  0.90888240  0.26471506    -0.79080
O1549       O  0.46943792  0.94201472  0.34575420    -0.92500
Zr1550     Zr  0.62602141  0.91104315  0.28336092     2.64680
O1551       O  0.55336471  0.88254329  0.24025820    -0.97450
O1552       O  0.67593342  0.89286446  0.26070412    -0.79520
O1553       O  0.55767895  0.90602479  0.32780813    -0.82870
O1554       O  0.59832499  0.93682254  0.26747019    -2.17580
O1555       O  0.64465614  0.51146187  0.33903964    -0.66260
O1556       O  0.71196268  0.52348201  0.29621017    -0.50830
C1557       C  0.69083913  0.52849619  0.32797302     0.72510
O1558       O  0.72627280  0.93632090  0.40733646    -0.59170
O1559       O  0.64183085  0.90928962  0.43183461    -0.51150
C1560       C  0.69070346  0.91772311  0.42860790     0.74310
O1561       O  0.79852871  0.00272901  0.31563567    -0.70570
O1562       O  0.75421260  0.98246861  0.26253163    -0.49240
C1563       C  0.79141577  0.00272734  0.27755042     0.75690
O1564       O  0.58194414  0.96988941  0.45231292    -0.65900
O1565       O  0.55997810  0.93027803  0.46307218    -0.53090
C1566       C  0.56108538  0.95077721  0.47412819     0.74070
Zr1567     Zr  0.63368596  0.98398509  0.39017310     2.77540
O1568       O  0.70594665  0.50856151  0.43499971    -0.96640
O1569       O  0.60298855  0.50894136  0.42522818    -0.77470
Zr1570     Zr  0.73271800  0.96428744  0.35738916     2.70070
O1571       O  0.79070081  0.99349952  0.40983614    -0.78710
O1572       O  0.79381533  0.95328753  0.33013377    -0.97800
Zr1573     Zr  0.58551745  0.91568186  0.39624700     2.21500
Zr1574     Zr  0.67326447  0.97819886  0.27611200     2.11130
O1575       O  0.70349096  0.98990328  0.34497956    -2.46480
O1576       O  0.66163300  0.95783650  0.40413788    -0.78510
O1577       O  0.60463008  0.97405820  0.32251801    -0.70700
O1578       O  0.65669343  0.92199644  0.34977968    -2.31660
O1579       O  0.55885688  0.94280300  0.38137549    -2.27870
O1580       O  0.70148799  0.95199581  0.29025613    -0.72460
H1581       H  0.58670840  0.93304821  0.23996358     0.79540
H1582       H  0.66514292  0.90995821  0.35393137     0.80620
H1583       H  0.73274164  0.00694799  0.34884401     0.82850
H1584       H  0.52964338  0.94012372  0.39888759     0.80460
H1585       H  0.71152456  0.90570712  0.26946214     0.43490
H1586       H  0.77373034  0.93466372  0.33076716     0.42460
H1587       H  0.80732627  0.01042519  0.39900822     0.42140
H1588       H  0.73699860  0.51967294  0.41762575     0.40070
H1589       H  0.56997432  0.50284123  0.41249654     0.43210
H1590       H  0.45497462  0.93226639  0.37062298     0.37990
H1591       H  0.48101842  0.90639281  0.23986982     0.44110
H1592       H  0.52327572  0.88233395  0.25389475     0.40520
H1593       H  0.69832771  0.51981056  0.45214818     0.45440
H1594       H  0.44014476  0.93370598  0.32733990     0.44160
H1595       H  0.56064891  0.89120519  0.21474198     0.44300
H1596       H  0.79864316  0.95655698  0.30073079     0.44660
C1597       C  0.51396711  0.97505524  0.19818061     0.24670
C1598       C  0.56321605  0.98927053  0.21408847    -0.23430
C1599       C  0.58906611  0.51545304  0.22118244     0.19580
C1600       C  0.56346341  0.52702165  0.21645821     0.24620
C1601       C  0.51225194  0.51255066  0.20350456    -0.23380
C1602       C  0.48838898  0.98660637  0.19281114     0.19520
F1603       F  0.44011231  0.97222901  0.17794356    -0.13340
F1604       F  0.48943442  0.94972754  0.19061132    -0.15700
F1605       F  0.58800956  0.55211151  0.22662122    -0.15700
F1606       F  0.63668548  0.52938623  0.23732942    -0.13340
C1607       C  0.55170031  0.48847065  0.06403922     0.24670
C1608       C  0.50015711  0.98168187  0.06242465    -0.23430
C1609       C  0.46582475  0.95971179  0.03903096     0.19580
C1610       C  0.48407423  0.94663027  0.01423485     0.24620
C1611       C  0.53661733  0.95445142  0.51326682    -0.23380
C1612       C  0.56943759  0.97486279  0.04027966     0.19520
F1613       F  0.62080719  0.48381810  0.53942958    -0.13340
F1614       F  0.58612961  0.50956210  0.08620332    -0.15700
F1615       F  0.45214189  0.92880401  0.98656082    -0.15700
F1616       F  0.41613333  0.95281721  0.03589874    -0.13340
C1617       C  0.22865873  0.94300654  0.18405284     0.24670
C1618       C  0.23757973  0.96627604  0.20075340    -0.23430
C1619       C  0.20159006  0.96498422  0.23201901     0.19580
C1620       C  0.16123944  0.94137612  0.24802516     0.24620
C1621       C  0.15454928  0.91838710  0.23205122    -0.23380
C1622       C  0.18738871  0.91979078  0.19832341     0.19520
F1623       F  0.18267238  0.89840993  0.18130756    -0.13340
F1624       F  0.26204189  0.94245068  0.15508038    -0.15700
F1625       F  0.13174038  0.94127393  0.28127810    -0.15700
F1626       F  0.20790470  0.98659128  0.24941183    -0.13340
C1627       C  0.21460719  0.90759999  0.05343220     0.24670
C1628       C  0.17370022  0.90716273  0.03732348    -0.23430
C1629       C  0.16629355  0.92672928  0.54928075     0.19580
C1630       C  0.20726730  0.94940564  0.06541513     0.24620
C1631       C  0.25426436  0.95190942  0.07097819    -0.23380
C1632       C  0.25608646  0.93034412  0.06867339     0.19520
F1633       F  0.29976174  0.93175203  0.07694286    -0.13340
F1634       F  0.21903311  0.88751267  0.04787878    -0.15700
F1635       F  0.20261786  0.96939332  0.57218743    -0.15700
F1636       F  0.12321520  0.92540360  0.53950696    -0.13340
C1637       C  0.38619950  0.87602132  0.34188821     0.24670
C1638       C  0.41228279  0.88098769  0.37780523    -0.23430
C1639       C  0.39126476  0.88516461  0.41480276     0.19580
C1640       C  0.34952157  0.88795121  0.41510562     0.24620
C1641       C  0.32635692  0.88534918  0.37827659    -0.23380
C1642       C  0.34467749  0.87875341  0.34184692     0.19520
F1643       F  0.32180391  0.87428205  0.30604254    -0.13340
F1644       F  0.40072034  0.86827909  0.30654817    -0.15700
F1645       F  0.33148534  0.89276608  0.45159777    -0.15700
F1646       F  0.41062338  0.88615342  0.45064657    -0.13340
C1647       C  0.79807503  0.56868826  0.40122396     0.24670
C1648       C  0.77029746  0.57172159  0.43485045    -0.23430
C1649       C  0.71952292  0.56490458  0.42972760     0.19580
C1650       C  0.69687812  0.55478648  0.39176851     0.24620
C1651       C  0.72229835  0.54872776  0.35967902    -0.23380
C1652       C  0.77392515  0.55686351  0.36461170     0.19520
F1653       F  0.79956164  0.55117360  0.33559984    -0.13340
F1654       F  0.84802847  0.57599406  0.40460107    -0.15700
F1655       F  0.64947001  0.55030755  0.38654764    -0.15700
F1656       F  0.69184729  0.56787486  0.46149830    -0.13340
C1657       C  0.85129507  0.57078995  0.24386318     0.24670
C1658       C  0.82308351  0.56531193  0.20842124    -0.23430
C1659       C  0.79551897  0.54010110  0.19284543     0.19580
C1660       C  0.79322299  0.52118465  0.21277998     0.24620
C1661       C  0.81377354  0.52557930  0.25160074    -0.23380
C1662       C  0.84766600  0.55115208  0.26457516     0.19520
F1663       F  0.87767283  0.55721244  0.29671734    -0.13340
F1664       F  0.88321608  0.59507712  0.25798006    -0.15700
F1665       F  0.77070182  0.49818881  0.19304705    -0.15700
F1666       F  0.76977018  0.53323370  0.15785129    -0.13340
C1667       C  0.71310700  0.66389586  0.00085167     0.24670
C1668       C  0.73017986  0.64835263  0.98280812    -0.23430
C1669       C  0.69196812  0.62440564  0.96717142     0.19580
C1670       C  0.63871075  0.61457077  0.97608140     0.24620
C1671       C  0.62215019  0.62841852  0.00161762    -0.23380
C1672       C  0.66014593  0.65388491  0.01117669     0.19520
F1673       F  0.64675844  0.66876424  0.03293964    -0.13340
F1674       F  0.74836536  0.68831242  0.01273702    -0.15700
F1675       F  0.60373066  0.59075681  0.96162289    -0.15700
F1676       F  0.70611422  0.60980803  0.94577967    -0.13340
C1677       C  0.93556072  0.72821995  0.25798730     0.24670
C1678       C  0.96901818  0.73035085  0.22443443    -0.23430
C1679       C  0.00842032  0.75450377  0.21103621     0.19580
C1680       C  0.01052433  0.77575418  0.22787299     0.24620
C1681       C  0.97613688  0.77343497  0.26034055    -0.23380
C1682       C  0.93953477  0.74976243  0.27605100     0.19520
F1683       F  0.90783402  0.74765612  0.30908135    -0.13340
F1684       F  0.89703810  0.70534105  0.27163438    -0.15700
F1685       F  0.04770853  0.79875034  0.21378784    -0.15700
F1686       F  0.04352434  0.75740830  0.18027751    -0.13340
C1687       C  0.06029558  0.74642049  0.97319771     0.24670
C1688       C  0.00620341  0.73246850  0.48099227    -0.23430
C1689       C  0.98199193  0.74513510  0.49412536     0.19580
C1690       C  0.01162498  0.77122874  0.50171378     0.24620
C1691       C  0.06537448  0.78557745  0.49142613    -0.23380
C1692       C  0.08959974  0.77277207  0.97753180     0.19520
F1693       F  0.14156326  0.78559121  0.96845318    -0.13340
F1694       F  0.08485764  0.73437050  0.96268305    -0.15700
F1695       F  0.98719768  0.78240021  0.51864926    -0.15700
F1696       F  0.92980759  0.73203335  0.50240843    -0.13340
C1697       C  0.87559610  0.79948010  0.50709485     0.24670
C1698       C  0.89305827  0.82341367  0.52668183    -0.23430
C1699       C  0.91466517  0.84388917  0.50054781     0.19580
C1700       C  0.91653096  0.84052564  0.45735046     0.24620
C1701       C  0.90325056  0.81713022  0.43801552    -0.23380
C1702       C  0.88050921  0.79644269  0.46388169     0.19520
F1703       F  0.86462972  0.77308418  0.44731185    -0.13340
F1704       F  0.85560998  0.77902681  0.02966664    -0.15700
F1705       F  0.93412161  0.86074354  0.43479294    -0.15700
F1706       F  0.93759516  0.86780793  0.51688458    -0.13340
C1707       C  0.89646197  0.88176240  0.28288276     0.24670
C1708       C  0.87525869  0.85761177  0.26203663    -0.23430
C1709       C  0.89250357  0.84301101  0.27356778     0.19580
C1710       C  0.93262311  0.85274116  0.29992236     0.24620
C1711       C  0.95488155  0.87654271  0.32160997    -0.23380
C1712       C  0.93559726  0.89103837  0.31233512     0.19520
F1713       F  0.95756992  0.91491141  0.32883570    -0.13340
F1714       F  0.88162012  0.89697050  0.27332270    -0.15700
F1715       F  0.95510704  0.83980981  0.29814216    -0.15700
F1716       F  0.87403108  0.81944317  0.25648411    -0.13340
C1717       C  0.73242711  0.69832990  0.13422813     0.24670
C1718       C  0.77320629  0.72397100  0.13634593    -0.23430
C1719       C  0.81803195  0.73049128  0.15677011     0.19580
C1720       C  0.82204619  0.71210503  0.17359144     0.24620
C1721       C  0.78171856  0.68637528  0.17072221    -0.23380
C1722       C  0.73637626  0.68000033  0.15123955     0.19520
F1723       F  0.69673197  0.65546389  0.14547859    -0.13340
F1724       F  0.68836812  0.69075286  0.11559110    -0.15700
F1725       F  0.86713465  0.71947498  0.19010582    -0.15700
F1726       F  0.85941999  0.75482144  0.15953829    -0.13340
C1727       C  0.72818512  0.93805298  0.13966579     0.24670
C1728       C  0.67962108  0.93446063  0.14994576    -0.23430
C1729       C  0.63533917  0.91230248  0.13381388     0.19580
C1730       C  0.63758792  0.89137541  0.12002057     0.24620
C1731       C  0.68497409  0.89329955  0.11955697    -0.23380
C1732       C  0.73085182  0.91744087  0.12530312     0.19520
F1733       F  0.77798690  0.92045475  0.12152537    -0.13340
F1734       F  0.77218878  0.95967428  0.15230155    -0.15700
F1735       F  0.59280556  0.86866217  0.11268587    -0.15700
F1736       F  0.58800238  0.90889603  0.14065454    -0.13340
C1737       C  0.68803420  0.86086520  0.95241809     0.24670
C1738       C  0.72833168  0.87107300  0.97943558    -0.23430
C1739       C  0.75953086  0.89739259  0.48749578     0.19580
C1740       C  0.74828230  0.91306734  0.47058632     0.24620
C1741       C  0.70533187  0.90242200  0.44618159    -0.23380
C1742       C  0.67647572  0.87635506  0.93615992     0.19520
F1743       F  0.63667978  0.86581221  0.91060618    -0.13340
F1744       F  0.65818406  0.83560595  0.94327333    -0.15700
F1745       F  0.77723091  0.93829486  0.47988792    -0.15700
F1746       F  0.79801138  0.90764945  0.51419687    -0.13340
C1747       C  0.66868586  0.70668228  0.21259309     0.24670
C1748       C  0.64926506  0.72212150  0.21746179    -0.23430
C1749       C  0.59449324  0.70964619  0.22137001     0.19580
C1750       C  0.56201561  0.68439930  0.20698124     0.24620
C1751       C  0.58285416  0.67010628  0.19427159    -0.23380
C1752       C  0.63467758  0.68044451  0.20358523     0.19520
F1753       F  0.65158421  0.66507535  0.20472292    -0.13340
F1754       F  0.71966849  0.71681073  0.21781092    -0.15700
F1755       F  0.51006057  0.67366961  0.20685412    -0.15700
F1756       F  0.57234055  0.72219775  0.23674798    -0.13340
C1757       C  0.03143967  0.66360985  0.25780295     0.24670
C1758       C  0.03762734  0.66166102  0.21496849    -0.23430
C1759       C  0.08751449  0.66850756  0.19814839     0.19580
C1760       C  0.12870802  0.67610427  0.22303910     0.24620
C1761       C  0.12196535  0.67719190  0.26573222    -0.23380
C1762       C  0.07283175  0.67119721  0.28275754     0.19520
F1763       F  0.06458740  0.67269154  0.32386430    -0.13340
F1764       F  0.98512313  0.65785858  0.27584195    -0.15700
F1765       F  0.17484589  0.68153346  0.20503275    -0.15700
F1766       F  0.09733313  0.66809219  0.15721021    -0.13340
C1767       C  0.06479080  0.61914183  0.46790886     0.24670
C1768       C  0.11246948  0.63821672  0.48465622    -0.23430
C1769       C  0.11754215  0.66006351  0.50306093     0.19580
C1770       C  0.07905689  0.66449740  0.49938342     0.24620
C1771       C  0.03197173  0.64592946  0.48134277    -0.23380
C1772       C  0.02435044  0.62283317  0.46679496     0.19520
F1773       F  0.97825526  0.60403936  0.95161775    -0.13340
F1774       F  0.05841874  0.59738998  0.95111906    -0.15700
F1775       F  0.08749052  0.68697933  0.51457034    -0.15700
F1776       F  0.16070788  0.67779871  0.52302939    -0.13340
C1777       C  0.26438994  0.80884871  0.38630650     0.24670
C1778       C  0.21141750  0.79598097  0.37845847    -0.23430
C1779       C  0.18601700  0.77095149  0.36157200     0.19580
C1780       C  0.21337311  0.75973639  0.35055983     0.24620
C1781       C  0.26661780  0.77282337  0.35720248    -0.23380
C1782       C  0.29180701  0.79738524  0.37579920     0.19520
F1783       F  0.34293277  0.81026884  0.38384226    -0.13340
F1784       F  0.28977969  0.83253255  0.40373729    -0.15700
F1785       F  0.18673539  0.73538011  0.33554946    -0.15700
F1786       F  0.13405735  0.75695321  0.35612364    -0.13340
C1787       C  0.35965193  0.59389885  0.44734729     0.24670
C1788       C  0.37340653  0.60400364  0.48753556    -0.23430
C1789       C  0.35477380  0.61818256  0.00661014     0.19580
C1790       C  0.32134196  0.62141603  0.48676155     0.24620
C1791       C  0.30715850  0.61136437  0.44631954    -0.23380
C1792       C  0.32765782  0.59798107  0.42657936     0.19520
F1793       F  0.31558181  0.58821951  0.38774518    -0.13340
F1794       F  0.37638800  0.57961519  0.42856597    -0.15700
F1795       F  0.30287243  0.63444877  0.50774795    -0.15700
F1796       F  0.36579275  0.62739085  0.04585089    -0.13340
C1797       C  0.39485690  0.65935596  0.16610063     0.24670
C1798       C  0.36131189  0.63334095  0.15588390    -0.23430
C1799       C  0.30739398  0.62210394  0.16282335     0.19580
C1800       C  0.28824009  0.63529399  0.18506056     0.24620
C1801       C  0.32244620  0.65989514  0.20150019    -0.23380
C1802       C  0.37565263  0.67245052  0.18948110     0.19520
F1803       F  0.40978221  0.69624928  0.20466869    -0.13340
F1804       F  0.44666273  0.67146036  0.15701643    -0.15700
F1805       F  0.23654246  0.62281038  0.19539660    -0.15700
F1806       F  0.27320674  0.59759799  0.15079176    -0.13340
C1807       C  0.50582401  0.81502797  0.36184795     0.24670
C1808       C  0.52301877  0.83211156  0.33131239    -0.23430
C1809       C  0.50943948  0.82252019  0.29051490     0.19580
C1810       C  0.47796769  0.79662486  0.28086231     0.24620
C1811       C  0.46127706  0.77959793  0.31121861    -0.23380
C1812       C  0.47630334  0.78904542  0.35181661     0.19520
F1813       F  0.46119803  0.77320809  0.38241997    -0.13340
F1814       F  0.51852189  0.82339552  0.40112613    -0.15700
F1815       F  0.46440624  0.78820447  0.24174392    -0.15700
F1816       F  0.52598738  0.83820503  0.25956728    -0.13340
C1817       C  0.48854012  0.69878112  0.48077803     0.24670
C1818       C  0.45529429  0.70651480  0.47650783    -0.23430
C1819       C  0.47440911  0.73224110  0.47698916     0.19580
C1820       C  0.52606448  0.75023524  0.48309076     0.24620
C1821       C  0.55941228  0.74278561  0.48997751    -0.23380
C1822       C  0.54057312  0.71678823  0.48745218     0.19520
F1823       F  0.57179486  0.70861129  0.99224826    -0.13340
F1824       F  0.47099695  0.67392977  0.47670589    -0.15700
F1825       F  0.54324547  0.77496644  0.48234672    -0.15700
F1826       F  0.44431752  0.74006650  0.46703445    -0.13340
C1827       C  0.46309682  0.77286768  0.08087861     0.24670
C1828       C  0.48031584  0.75963399  0.09873143    -0.23430
C1829       C  0.44860306  0.73300528  0.09471758     0.19580
C1830       C  0.40374756  0.72026779  0.07116241     0.24620
C1831       C  0.38910301  0.73371236  0.05037020    -0.23380
C1832       C  0.41867585  0.76026362  0.05731920     0.19520
F1833       F  0.40637431  0.77447961  0.03955948    -0.13340
F1834       F  0.49111949  0.79848456  0.08436928    -0.15700
F1835       F  0.37705042  0.69473837  0.06637066    -0.15700
F1836       F  0.46336303  0.71921514  0.11057935    -0.13340
O1837       O  0.43554092  0.73788850  0.81660849    -0.74210
O1838       O  0.37821024  0.74446252  0.79188208    -0.53120
C1839       C  0.42404402  0.75220882  0.80293323     0.79520
O1840       O  0.27946771  0.61801791  0.88521613    -0.58810
O1841       O  0.25252799  0.62604978  0.94681719    -0.51840
C1842       C  0.27602494  0.61760467  0.92465960     0.71530
O1843       O  0.29235951  0.65088918  0.76866377    -0.73370
O1844       O  0.30873800  0.68796552  0.74788280    -0.53940
C1845       C  0.30620304  0.66694556  0.74138562     0.77530
O1846       O  0.41608144  0.68968914  0.91691888    -0.58520
O1847       O  0.36449079  0.68133405  0.97493053    -0.51640
C1848       C  0.40862275  0.69012174  0.95549678     0.74120
Zr1849     Zr  0.39177735  0.70649383  0.86813084     2.54710
O1850       O  0.41954339  0.68522862  0.81789885    -0.79080
O1851       O  0.48232039  0.73658243  0.88610690    -0.92500
Zr1852     Zr  0.26310549  0.64184255  0.83971934     2.64680
O1853       O  0.26939584  0.60933442  0.80003362    -0.97450
O1854       O  0.17160321  0.60922964  0.83084185    -0.79520
O1855       O  0.32942976  0.68339758  0.81927449    -0.82870
O1856       O  0.32620234  0.66575964  0.88892509    -2.17580
O1857       O  0.35000532  0.73521399  0.99115204    -0.66260
O1858       O  0.32109657  0.69659567  0.01279535    -0.50830
C1859       C  0.34970317  0.72097589  0.01691680     0.72510
O1860       O  0.14797615  0.67235914  0.82748038    -0.59170
O1861       O  0.21220470  0.69503146  0.77952636    -0.51150
C1862       C  0.16376469  0.68224101  0.79252359     0.74310
O1863       O  0.16564286  0.63591504  0.93204788    -0.70570
O1864       O  0.20036488  0.65037946  0.99156388    -0.49240
C1865       C  0.16006157  0.63947772  0.97026032     0.75690
O1866       O  0.32054112  0.76230313  0.88148489    -0.65900
O1867       O  0.27807955  0.74123136  0.82398445    -0.53090
C1868       C  0.29145503  0.75859745  0.85290350     0.74070
Zr1869     Zr  0.30813130  0.73170141  0.92754392     2.77540
O1870       O  0.25000992  0.74035163  0.96941015    -0.96640
O1871       O  0.37507377  0.77557254  0.94509259    -0.77470
Zr1872     Zr  0.18139210  0.66799097  0.88798657     2.70070
O1873       O  0.14015803  0.68712683  0.92673255    -0.78710
O1874       O  0.09129860  0.63568278  0.87363980    -0.97800
Zr1875     Zr  0.29250927  0.70711860  0.81169896     2.21500
Zr1876     Zr  0.28225150  0.66970808  0.95074793     2.11130
O1877       O  0.23911652  0.69076885  0.94309866    -2.46480
O1878       O  0.24855379  0.70958240  0.87387080    -0.78510
O1879       O  0.34996309  0.71064290  0.93008272    -0.70700
O1880       O  0.22550957  0.66445035  0.82755435    -2.31660
O1881       O  0.35025407  0.72821000  0.86681463    -2.27870
O1882       O  0.21964615  0.64572787  0.89923574    -0.72460
H1883       H  0.34409976  0.65771322  0.89179692     0.79540
H1884       H  0.20266862  0.65548920  0.80531846     0.80620
H1885       H  0.22117607  0.69167109  0.96790486     0.82850
H1886       H  0.37464780  0.74590423  0.86424288     0.80460
H1887       H  0.16842637  0.60664190  0.80086827     0.43490
H1888       H  0.08436386  0.61987729  0.88341926     0.42460
H1889       H  0.13598730  0.69627619  0.90644821     0.42140
H1890       H  0.21652017  0.73040089  0.95590241     0.40070
H1891       H  0.35735854  0.78145539  0.96481723     0.43210
H1892       H  0.50118722  0.74736989  0.86272381     0.37990
H1893       H  0.45631267  0.69831088  0.81063131     0.44110
H1894       H  0.30390212  0.61303765  0.80558106     0.40520
H1895       H  0.24338565  0.73214046  0.99534963     0.45440
H1896       H  0.49750777  0.72646342  0.88625814     0.44160
H1897       H  0.24403076  0.59344309  0.81362629     0.44300
H1898       H  0.07019825  0.64012853  0.89211318     0.44660
O1899       O  0.77256663  0.85832049  0.51554197    -0.74210
O1900       O  0.68452327  0.83631687  0.51953826    -0.53120
C1901       C  0.72901477  0.85398475  0.50573782     0.79520
O1902       O  0.73074001  0.73941917  0.59911051    -0.58810
O1903       O  0.79734319  0.76615692  0.64033734    -0.51840
C1904       C  0.76713200  0.74433123  0.62321484     0.71530
O1905       O  0.63654111  0.75321834  0.51588967    -0.73370
O1906       O  0.61202008  0.78113606  0.52651860    -0.53940
C1907       C  0.60733677  0.76085357  0.51031940     0.77530
O1908       O  0.87581560  0.84524610  0.58097136    -0.58520
O1909       O  0.86119780  0.80957176  0.59818226    -0.51640
C1910       C  0.88147403  0.82726078  0.57218404     0.74120
Zr1911     Zr  0.79798184  0.83641263  0.55523413     2.54710
O1912       O  0.80574379  0.81966860  0.98737036    -0.79080
O1913       O  0.87031248  0.87865039  0.53790662    -0.92500
Zr1914     Zr  0.69467425  0.76144388  0.56671277     2.64680
O1915       O  0.73209700  0.75152258  0.00547354    -0.97450
O1916       O  0.62429845  0.71702286  0.56946406    -0.79520
O1917       O  0.71427507  0.80084570  0.54264095    -0.82870
O1918       O  0.77694117  0.79633382  0.57580964    -2.17580
O1919       O  0.81438590  0.85745083  0.71889844    -0.66260
O1920       O  0.83420198  0.82805105  0.70528483    -0.50830
C1921       C  0.83890966  0.84729310  0.72656372     0.72510
O1922       O  0.54931396  0.76523619  0.63978726    -0.59170
O1923       O  0.56882868  0.79321900  0.59236247    -0.51150
C1924       C  0.53582909  0.77370630  0.61231682     0.74310
O1925       O  0.66020611  0.76187448  0.71922773    -0.70570
O1926       O  0.72667782  0.76008283  0.68955763    -0.49240
C1927       C  0.68239805  0.75003898  0.71069026     0.75690
O1928       O  0.71777772  0.87251469  0.64666657    -0.65900
O1929       O  0.66027391  0.85131433  0.59600295    -0.53090
C1930       C  0.68707849  0.87070687  0.62068479     0.74070
Zr1931     Zr  0.75124998  0.84867519  0.66729822     2.77540
O1932       O  0.71096174  0.85347867  0.73146115    -0.96640
O1933       O  0.82238812  0.89300484  0.66802448    -0.77470
Zr1934     Zr  0.63383923  0.77634489  0.66769636     2.70070
O1935       O  0.59153327  0.78140960  0.73041427    -0.78710
O1936       O  0.56794576  0.73188639  0.65274305    -0.97800
Zr1937     Zr  0.66075293  0.81305141  0.57894173     2.21500
Zr1938     Zr  0.78398249  0.79931570  0.64855730     2.11130
O1939       O  0.72330954  0.80782648  0.68474171    -2.46480
O1940       O  0.66211652  0.81744552  0.65148460    -0.78510
O1941       O  0.80763654  0.83954364  0.62784196    -0.70700
O1942       O  0.63655207  0.77256651  0.59705600    -2.31660
O1943       O  0.74588444  0.84679798  0.59515662    -2.27870
O1944       O  0.69524409  0.76703333  0.63705510    -0.72460
H1945       H  0.79414624  0.78997517  0.55827079     0.79540
H1946       H  0.60225821  0.75934405  0.58881918     0.80620
H1947       H  0.72639545  0.80833241  0.71378161     0.82850
H1948       H  0.75529163  0.86293195  0.58679097     0.80460
H1949       H  0.59215455  0.71688974  0.57436601     0.43490
H1950       H  0.58570947  0.72295095  0.65206482     0.42460
H1951       H  0.61456254  0.79948809  0.73898852     0.42140
H1952       H  0.71059345  0.84197183  0.74980221     0.40070
H1953       H  0.83701915  0.89571291  0.63950740     0.43210
H1954       H  0.86049679  0.89019987  0.55069283     0.37990
H1955       H  0.78796518  0.82393438  0.96960282     0.44110
H1956       H  0.75607031  0.76782655  0.99259924     0.40520
H1957       H  0.73722933  0.87061419  0.74251190     0.45440
H1958       H  0.86964354  0.87947565  0.50811191     0.44160
H1959       H  0.75501602  0.74713604  0.01559706     0.44300
H1960       H  0.54234322  0.72587626  0.67622345     0.44660
O1961       O  0.99561961  0.70257115  0.52219550    -0.74210
O1962       O  0.93841785  0.68829176  0.97387443    -0.53120
C1963       C  0.97951504  0.70622272  0.49129155     0.79520
O1964       O  0.00202002  0.64898132  0.64947933    -0.58810
O1965       O  0.95276143  0.65296608  0.70130076    -0.51840
C1966       C  0.99404131  0.65356787  0.68735044     0.71530
O1967       O  0.98699381  0.66020645  0.52171854    -0.73370
O1968       O  0.95214776  0.64196744  0.96429795    -0.53940
C1969       C  0.98905063  0.64952150  0.98791503     0.77530
O1970       O  0.96591299  0.71402293  0.65873595    -0.58520
O1971       O  0.92470164  0.68606285  0.70884072    -0.51640
C1972       C  0.95357941  0.70854266  0.69615852     0.74120
Zr1973     Zr  0.95371607  0.69800010  0.58929967     2.54710
O1974       O  0.04510102  0.73183570  0.59420913    -0.79080
O1975       O  0.94341830  0.73262434  0.58330959    -0.92500
Zr1976     Zr  0.96173320  0.63895057  0.58396947     2.64680
O1977       O  0.04488431  0.64312945  0.57565488    -0.97450
O1978       O  0.94474564  0.59694744  0.56921874    -0.79520
O1979       O  0.95803590  0.66788050  0.54704743    -0.82870
O1980       O  0.95784487  0.66987933  0.62734139    -2.17580
O1981       O  0.76417661  0.64608710  0.65437984    -0.66260
O1982       O  0.83075176  0.66914417  0.69251052    -0.50830
C1983       C  0.79033436  0.66566703  0.67656765     0.72510
O1984       O  0.78346518  0.57955274  0.50756316    -0.59170
O1985       O  0.83788940  0.60936882  0.96152442    -0.51150
C1986       C  0.79890685  0.58754096  0.47068492     0.74310
O1987       O  0.81827968  0.57938142  0.64518489    -0.70570
O1988       O  0.84010040  0.60712800  0.70079929    -0.49240
C1989       C  0.82698687  0.58527770  0.68378297     0.75690
O1990       O  0.79731608  0.66783930  0.52665630    -0.65900
O1991       O  0.80603530  0.64368007  0.47792807    -0.53090
C1992       C  0.78190850  0.65410856  0.49438511     0.74070
Zr1993     Zr  0.80108977  0.65176576  0.58685406     2.77540
O1994       O  0.70897505  0.62395573  0.57550326    -0.96640
O1995       O  0.80171116  0.68967584  0.58375425    -0.77470
Zr1996     Zr  0.81192578  0.59378513  0.57981111     2.70070
O1997       O  0.71877580  0.56767325  0.59645157    -0.78710
O1998       O  0.81050377  0.55553809  0.56170801    -0.97800
Zr1999     Zr  0.88551818  0.64674431  0.50263945     2.21500
Zr2000     Zr  0.87802938  0.64744922  0.66768629     2.11130
O2001       O  0.80302222  0.62243465  0.62577913    -2.46480
O2002       O  0.80669344  0.62230042  0.54266263    -0.78510
O2003       O  0.87445977  0.67547186  0.62744831    -0.70700
O2004       O  0.89030803  0.61674535  0.53987867    -2.31660
O2005       O  0.88090038  0.67652300  0.54870849    -2.27870
O2006       O  0.88396993  0.61722486  0.62258781    -0.72460
H2007       H  0.98845693  0.68106173  0.64257217     0.79540
H2008       H  0.89394583  0.60528502  0.52081221     0.80620
H2009       H  0.77185708  0.61214765  0.64261724     0.82850
H2010       H  0.88340972  0.68960535  0.53425110     0.80460
H2011       H  0.96201940  0.59776787  0.54199795     0.43490
H2012       H  0.83748769  0.55708663  0.57799172     0.42460
H2013       H  0.70358357  0.57334371  0.57864145     0.42140
H2014       H  0.69358645  0.61624474  0.60209118     0.40070
H2015       H  0.83849693  0.70380761  0.58613702     0.43210
H2016       H  0.97912683  0.74795557  0.58472957     0.37990
H2017       H  0.06297166  0.72301327  0.59515197     0.44110
H2018       H  0.07051241  0.66062528  0.58568358     0.40520
H2019       H  0.69726525  0.63536772  0.57329344     0.45440
H2020       H  0.92587030  0.73345066  0.60955949     0.44160
H2021       H  0.04371206  0.63224983  0.59578978     0.44300
H2022       H  0.77715401  0.54187089  0.57409255     0.44660
O2023       O  0.14611780  0.79956239  0.85800822    -0.74210
O2024       O  0.19887193  0.82887923  0.90577466    -0.53120
C2025       C  0.18370281  0.80900013  0.88181170     0.79520
O2026       O  0.15687770  0.88668226  0.75964455    -0.58810
O2027       O  0.08293049  0.88498892  0.77563225    -0.51840
C2028       C  0.12863295  0.89510446  0.75666057     0.71530
O2029       O  0.25972458  0.88425320  0.84458210    -0.73370
O2030       O  0.25416774  0.88322857  0.91314094    -0.53940
C2031       C  0.27814937  0.88508848  0.87870923     0.77530
O2032       O  0.00374929  0.79688322  0.82125665    -0.58520
O2033       O  0.99359186  0.81489392  0.77314024    -0.51640
C2034       C  0.98943805  0.79563247  0.78573556     0.74120
Zr2035     Zr  0.09226798  0.81030970  0.83074135     2.54710
O2036       O  0.12651916  0.80865909  0.76172207    -0.79080
O2037       O  0.05058683  0.76523312  0.81463103    -0.92500
Zr2038     Zr  0.18506241  0.88373349  0.82279467     2.64680
O2039       O  0.24648571  0.88866010  0.76643388    -0.97450
O2040       O  0.23850317  0.92966460  0.82803350    -0.79340
O2041       O  0.17081311  0.84780216  0.85035042    -0.82870
O2042       O  0.10609814  0.84564890  0.80034305    -2.17580
O2043       O  0.94255732  0.80088190  0.89319270    -0.66260
O2044       O  0.94745876  0.83299642  0.86952949    -0.50830
C2045       C  0.92693233  0.81538830  0.89580256     0.72510
O2046       O  0.13029940  0.89953375  0.97739565    -0.59170
O2047       O  0.17034484  0.87904068  0.98423957    -0.51150
C2048       C  0.15534578  0.89367160  0.99772244     0.74310
O2049       O  0.01961692  0.89011111  0.87711262    -0.70570
O2050       O  0.03772296  0.88568623  0.81218551    -0.49240
C2051       C  0.00822641  0.88737874  0.83864990     0.75690
O2052       O  0.06650063  0.82280362  0.98729332    -0.65900
O2053       O  0.14039231  0.82601703  0.97479934    -0.53090
C2054       C  0.09290489  0.81318816  0.98767312     0.74070
Zr2055     Zr  0.01988830  0.81922160  0.92902082     2.77540
O2056       O  0.98841807  0.83077792  0.99146773    -0.96640
O2057       O  0.95902420  0.77451073  0.93958426    -0.77470
Zr2058     Zr  0.09904681  0.89391408  0.90962820     2.70070
O2059       O  0.06675785  0.91397955  0.95802212    -0.78710
O2060       O  0.16036696  0.93794731  0.89381538    -0.97800
Zr2061     Zr  0.16281655  0.85476835  0.92185256     2.21500
Zr2062     Zr  0.03349955  0.84903246  0.82457112     2.11130
O2063       O  0.02740198  0.85404459  0.89849877    -2.46480
O2064       O  0.09279970  0.85963021  0.94094853    -0.78510
O2065       O  0.02586610  0.81515902  0.85735449    -0.70700
O2066       O  0.17442850  0.89136135  0.89353729    -2.31660
O2067       O  0.08782743  0.81453861  0.90282163    -2.27870
O2068       O  0.11311977  0.88746046  0.84060471    -0.72460
H2069       H  0.10605129  0.84262969  0.77104548     0.79540
H2070       H  0.20544248  0.90658073  0.90344416     0.80620
H2071       H  0.00436785  0.85750574  0.91465976     0.82850
H2072       H  0.08458617  0.80007035  0.91306209     0.80460
H2073       H  0.27032524  0.93394376  0.84077721     0.43490
H2074       H  0.19452061  0.94211353  0.90148134     0.42460
H2075       H  0.03562633  0.89974821  0.97174203     0.42140
H2076       H  0.01770399  0.84783246  0.00015427     0.40070
H2077       H  0.96807974  0.76599264  0.91700648     0.43210
H2078       H  0.04301230  0.75777179  0.84146712     0.37990
H2079       H  0.16252064  0.81372553  0.76535734     0.44110
H2080       H  0.22580692  0.87441548  0.74660420     0.40520
H2081       H  0.98428034  0.81969840  0.01256409     0.45440
H2082       H  0.07843887  0.76343888  0.80131299     0.44160
H2083       H  0.25571644  0.90392805  0.75289415     0.44300
H2084       H  0.16292238  0.93788492  0.86361750     0.44660
O2085       O  0.35483362  0.59493671  0.66014485    -0.74210
O2086       O  0.42329775  0.62520670  0.62153775    -0.53120
C2087       C  0.38133463  0.61687533  0.64465985     0.79520
O2088       O  0.51473015  0.54883830  0.69267930    -0.58810
O2089       O  0.43797395  0.51122390  0.69046119    -0.51840
C2090       C  0.48635297  0.52495443  0.69667417     0.71530
O2091       O  0.54677215  0.62600407  0.69042347    -0.73370
O2092       O  0.52701423  0.64177211  0.64121787    -0.53940
C2093       C  0.55006701  0.64431796  0.67396454     0.77530
O2094       O  0.28730321  0.51147937  0.68554136    -0.58520
O2095       O  0.32467214  0.98915043  0.67293281    -0.51640
C2096       C  0.28614224  0.99078064  0.68607166     0.74120
Zr2097     Zr  0.35265707  0.55605352  0.66374946     2.54710
O2098       O  0.35032301  0.56595965  0.73684350    -0.79080
O2099       O  0.26397251  0.54433473  0.65815434    -0.92500
Zr2100     Zr  0.49817524  0.58013340  0.67984726     2.64680
O2101       O  0.46795662  0.57888903  0.75111837    -0.97450
O2102       O  0.58387184  0.60030305  0.70687126    -0.79520
O2103       O  0.44167369  0.59109723  0.66172578    -0.82870
O2104       O  0.40955523  0.54544201  0.68328484    -2.17580
O2105       O  0.30553488  0.99527351  0.55986994    -0.66260
O2106       O  0.33589858  0.97865887  0.59788967    -0.50830
C2107       C  0.30151025  0.97683077  0.57665307     0.72510
O2108       O  0.53843170  0.59146659  0.51385352    -0.59170
O2109       O  0.55287449  0.62615258  0.54932562    -0.51150
C2110       C  0.56796678  0.61508251  0.52205551     0.74310
O2111       O  0.51467360  0.52228140  0.56319104    -0.70570
O2112       O  0.44472513  0.99283957  0.60109621    -0.49240
C2113       C  0.48572613  0.50006942  0.57724863     0.75690
O2114       O  0.37302177  0.57095670  0.51196168    -0.65900
O2115       O  0.43216139  0.61094992  0.53704534    -0.53090
C2116       C  0.39580511  0.59499916  0.51299762     0.74070
Zr2117     Zr  0.37237717  0.53923053  0.54702439     2.77540
O2118       O  0.39460917  0.52565348  0.98138131    -0.96640
O2119       O  0.29115609  0.52537610  0.51698824    -0.77470
Zr2120     Zr  0.51489528  0.56076123  0.56290098     2.70070
O2121       O  0.53406897  0.54581612  0.99733599    -0.78710
O2122       O  0.60655842  0.58194362  0.57397226    -0.97800
Zr2123     Zr  0.47018525  0.60573773  0.59390388     2.21500
Zr2124     Zr  0.40399542  0.51497420  0.63192720     2.11130
O2125       O  0.42696550  0.52656000  0.56290791    -2.46480
O2126       O  0.46051203  0.57336129  0.54463525    -0.78510
O2127       O  0.34654768  0.52568302  0.61419759    -0.70700
O2128       O  0.52635545  0.59371395  0.61201987    -2.31660
O2129       O  0.37999220  0.57069117  0.59609254    -2.27870
O2130       O  0.49256815  0.54896500  0.63078340    -0.72460
H2131       H  0.39894151  0.53850337  0.70994730     0.79540
H2132       H  0.56227003  0.60782625  0.61156877     0.80620
H2133       H  0.42196253  0.51267724  0.54468131     0.82850
H2134       H  0.35806093  0.57590015  0.58869257     0.80460
H2135       H  0.60715194  0.60259197  0.68251323     0.43490
H2136       H  0.60768450  0.57224673  0.59509694     0.42460
H2137       H  0.50173692  0.53791687  0.98249357     0.42140
H2138       H  0.36396954  0.50836748  0.97584157     0.40070
H2139       H  0.27054553  0.52779647  0.53951607     0.43210
H2140       H  0.26498862  0.55184482  0.63285713     0.37990
H2141       H  0.37718902  0.58426703  0.74009672     0.44110
H2142       H  0.48253488  0.57112917  0.76468646     0.40520
H2143       H  0.39351755  0.53597465  0.96142335     0.45440
H2144       H  0.25859079  0.55424592  0.68061608     0.44160
H2145       H  0.48778852  0.59676415  0.76143322     0.44300
H2146       H  0.62088557  0.57777440  0.54869046     0.44660
O2147       O  0.48960553  0.89129430  0.83972079    -0.74210
O2148       O  0.49112801  0.89080815  0.90613830    -0.53120
C2149       C  0.46558464  0.88656746  0.87463671     0.79520
O2150       O  0.66166943  0.92353468  0.71618305    -0.58810
O2151       O  0.67607365  0.96168424  0.70537853    -0.51840
C2152       C  0.67235436  0.94090903  0.69302192     0.71530
O2153       O  0.59089034  0.87144155  0.81148349    -0.73370
O2154       O  0.54834399  0.87075662  0.87222774    -0.53940
C2155       C  0.55648887  0.85982518  0.83984212     0.77530
O2156       O  0.54597270  0.95958585  0.75890330    -0.58520
O2157       O  0.62898315  0.98614674  0.73312145    -0.51640
C2158       C  0.58038034  0.97684506  0.73527830     0.74120
Zr2159     Zr  0.53151557  0.93275839  0.81321394     2.54710
O2160       O  0.46339872  0.90888203  0.76471518    -0.79080
O2161       O  0.46943740  0.94201433  0.84575405    -0.92500
Zr2162     Zr  0.62602135  0.91104301  0.78336105     2.64680
O2163       O  0.55336437  0.88254302  0.74025865    -0.97450
O2164       O  0.67593335  0.89286436  0.76070395    -0.79520
O2165       O  0.55767880  0.90602462  0.82780815    -0.82870
O2166       O  0.59832483  0.93682234  0.76747016    -2.17580
O2167       O  0.64465573  0.51146176  0.83903964    -0.66260
O2168       O  0.71196230  0.52348185  0.79621021    -0.50830
C2169       C  0.69083876  0.52849606  0.82797302     0.72510
O2170       O  0.72627253  0.93632093  0.90733681    -0.59170
O2171       O  0.64183054  0.90928956  0.93183480    -0.51150
C2172       C  0.69070320  0.91772312  0.92860821     0.74310
O2173       O  0.79852843  0.00272894  0.81563588    -0.70570
O2174       O  0.75421245  0.98246853  0.76253178    -0.49240
C2175       C  0.79141556  0.00272727  0.77755060     0.75690
O2176       O  0.58194363  0.96988927  0.95231287    -0.65900
O2177       O  0.55997767  0.93027791  0.96307221    -0.53090
C2178       C  0.56108493  0.95077709  0.97412819     0.74070
Zr2179     Zr  0.63368542  0.98398493  0.89017304     2.77540
O2180       O  0.70594594  0.50856147  0.93499976    -0.96640
O2181       O  0.60298764  0.50894110  0.92522789    -0.77470
Zr2182     Zr  0.73271770  0.96428739  0.85738937     2.70070
O2183       O  0.79070038  0.99349955  0.90983636    -0.78710
O2184       O  0.79381512  0.95328750  0.83013416    -0.97800
Zr2185     Zr  0.58551710  0.91568174  0.89624708     2.21500
Zr2186     Zr  0.67326421  0.97819870  0.77611203     2.11130
O2187       O  0.70349055  0.98990317  0.84497963    -2.46480
O2188       O  0.66163256  0.95783641  0.90413796    -0.78510
O2189       O  0.60462968  0.97405799  0.82251790    -0.70700
O2190       O  0.65669323  0.92199637  0.84977987    -2.31660
O2191       O  0.55885643  0.94280280  0.88137542    -2.27870
O2192       O  0.70148784  0.95199571  0.79025629    -0.72460
H2193       H  0.58670826  0.93304798  0.73996355     0.79540
H2194       H  0.66514281  0.90995819  0.85393164     0.80620
H2195       H  0.73274121  0.00694788  0.84884410     0.82850
H2196       H  0.52964290  0.94012351  0.89888750     0.80460
H2197       H  0.71152450  0.90570701  0.76946195     0.43490
H2198       H  0.77373007  0.93466368  0.83076737     0.42460
H2199       H  0.80732564  0.01042521  0.89900848     0.42140
H2200       H  0.73699789  0.51967294  0.91762582     0.40070
H2201       H  0.56997345  0.50284093  0.91249614     0.43210
H2202       H  0.45497410  0.93226595  0.87062279     0.37990
H2203       H  0.48101781  0.90639252  0.73986983     0.44110
H2204       H  0.52327553  0.88233388  0.75389505     0.40520
H2205       H  0.69832684  0.51981047  0.95214819     0.45440
H2206       H  0.44014427  0.93370557  0.82733972     0.44160
H2207       H  0.56064868  0.89120475  0.71474222     0.44300
H2208       H  0.79864322  0.95655707  0.80073121     0.44660
C2209       C  0.51396693  0.97505510  0.69818054     0.24670
C2210       C  0.56321584  0.98927035  0.71408845    -0.23430
C2211       C  0.58906594  0.51545284  0.72118247     0.19580
C2212       C  0.56346334  0.52702150  0.71645825     0.24620
C2213       C  0.51225190  0.51255056  0.70350456    -0.23380
C2214       C  0.48838888  0.98660628  0.69281109     0.19520
F2215       F  0.44011224  0.97222897  0.67794347    -0.13340
F2216       F  0.48943418  0.94972741  0.69061118    -0.15700
F2217       F  0.58800954  0.55211136  0.72662132    -0.15700
F2218       F  0.63668528  0.52938597  0.73732949    -0.13340
C2219       C  0.55170048  0.48847066  0.56403927     0.24670
C2220       C  0.50015725  0.98168185  0.56242462    -0.23430
C2221       C  0.46582498  0.95971179  0.53903085     0.19580
C2222       C  0.48407456  0.94663033  0.51423473     0.24620
C2223       C  0.53661699  0.95445135  0.01326685    -0.23380
C2224       C  0.56943783  0.97486284  0.54027971     0.19520
F2225       F  0.62080691  0.48381802  0.03942947    -0.13340
F2226       F  0.58612969  0.50956209  0.58620344    -0.15700
F2227       F  0.45214236  0.92880414  0.48656056    -0.15700
F2228       F  0.41613356  0.95281720  0.53589856    -0.13340
C2229       C  0.22865963  0.94300641  0.68405341     0.24670
C2230       C  0.23758023  0.96627586  0.70075384    -0.23430
C2231       C  0.20159027  0.96498393  0.73201927     0.19580
C2232       C  0.16123958  0.94137577  0.74802525     0.24620
C2233       C  0.15454969  0.91838679  0.73205133    -0.23380
C2234       C  0.18738964  0.91979061  0.69832382     0.19520
F2235       F  0.18267356  0.89840983  0.68130788    -0.13340
F2236       F  0.26204303  0.94245064  0.65508108    -0.15700
F2237       F  0.13174004  0.94127347  0.78127792    -0.15700
F2238       F  0.20790456  0.98659093  0.74941203    -0.13340
C2239       C  0.21460657  0.90759981  0.55343311     0.24670
C2240       C  0.17369960  0.90716255  0.53732439    -0.23430
C2241       C  0.16629402  0.92672941  0.04927996     0.19580
C2242       C  0.20726696  0.94940555  0.56541573     0.24620
C2243       C  0.25426402  0.95190930  0.57097872    -0.23380
C2244       C  0.25608600  0.93034398  0.56867408     0.19520
F2245       F  0.29976129  0.93175187  0.57694343    -0.13340
F2246       F  0.21903235  0.88751245  0.54787984    -0.15700
F2247       F  0.20261806  0.96939337  0.07218698    -0.15700
F2248       F  0.12321567  0.92540371  0.03950615    -0.13340
C2249       C  0.38619870  0.87602033  0.84188732     0.24670
C2250       C  0.41228218  0.88098711  0.87780442    -0.23430
C2251       C  0.39126422  0.88516434  0.91480171     0.19580
C2252       C  0.34952100  0.88795088  0.91510419     0.24620
C2253       C  0.32635610  0.88534840  0.87827505    -0.23380
C2254       C  0.34467646  0.87875224  0.84184570     0.19520
F2255       F  0.32180257  0.87428042  0.80604131    -0.13340
F2256       F  0.40071971  0.86827796  0.80654753    -0.15700
F2257       F  0.33148506  0.89276619  0.95159612    -0.15700
F2258       F  0.41062313  0.88615365  0.95064566    -0.13340
C2259       C  0.79807484  0.56868830  0.90122382     0.24670
C2260       C  0.77029736  0.57172167  0.93485031    -0.23430
C2261       C  0.71952274  0.56490458  0.92972754     0.19580
C2262       C  0.69687782  0.55478639  0.89176851     0.24620
C2263       C  0.72229800  0.54872765  0.85967901    -0.23380
C2264       C  0.77392485  0.55686344  0.86461162     0.19520
F2265       F  0.79956127  0.55117349  0.83559979    -0.13340
F2266       F  0.84802832  0.57599413  0.90460085    -0.15700
F2267       F  0.64946965  0.55030742  0.88654771    -0.15700
F2268       F  0.69184714  0.56787487  0.96149827    -0.13340
C2269       C  0.85129504  0.57078988  0.74386335     0.24670
C2270       C  0.82308347  0.56531188  0.70842142    -0.23430
C2271       C  0.79551885  0.54010104  0.69284562     0.19580
C2272       C  0.79322280  0.52118458  0.71278016     0.24620
C2273       C  0.81377335  0.52557921  0.75160092    -0.23380
C2274       C  0.84766589  0.55115199  0.76457533     0.19520
F2275       F  0.87767267  0.55721233  0.79671754    -0.13340
F2276       F  0.88321611  0.59507705  0.75798023    -0.15700
F2277       F  0.77070156  0.49818873  0.69304724    -0.15700
F2278       F  0.76977005  0.53323366  0.65785149    -0.13340
C2279       C  0.71310685  0.66389573  0.50085178     0.24670
C2280       C  0.73017970  0.64835251  0.48280821    -0.23430
C2281       C  0.69196796  0.62440555  0.46717142     0.19580
C2282       C  0.63871058  0.61457069  0.47608134     0.24620
C2283       C  0.62215002  0.62841842  0.50161760    -0.23380
C2284       C  0.66014578  0.65388480  0.51117675     0.19520
F2285       F  0.64675830  0.66876413  0.53293975    -0.13340
F2286       F  0.74836522  0.68831228  0.51273721    -0.15700
F2287       F  0.60373047  0.59075676  0.46162271    -0.15700
F2288       F  0.70611405  0.60980794  0.44577962    -0.13340
C2289       C  0.93556058  0.72821988  0.75798741     0.24670
C2290       C  0.96901797  0.73035085  0.72443444    -0.23430
C2291       C  0.00841983  0.75450379  0.71103613     0.19580
C2292       C  0.01052361  0.77575415  0.72787293     0.24620
C2293       C  0.97613624  0.77343486  0.76034060    -0.23380
C2294       C  0.93953442  0.74976231  0.77605113     0.19520
F2295       F  0.90783374  0.74765594  0.80908157    -0.13340
F2296       F  0.89703822  0.70534096  0.77163458    -0.15700
F2297       F  0.04770751  0.79875032  0.71378767    -0.15700
F2298       F  0.04352382  0.75740840  0.68027734    -0.13340
C2299       C  0.06029518  0.74642031  0.47319788     0.24670
C2300       C  0.00620383  0.73246872  0.98099226    -0.23430
C2301       C  0.98199248  0.74513537  0.99412542     0.19580
C2302       C  0.01162562  0.77122902  0.00171372     0.24620
C2303       C  0.06537507  0.78557769  0.99142584    -0.23380
C2304       C  0.08959927  0.77277188  0.47753214     0.19520
F2305       F  0.14156284  0.78559105  0.46845371    -0.13340
F2306       F  0.08485733  0.73437035  0.46268326    -0.15700
F2307       F  0.98719846  0.78240054  0.01864931    -0.15700
F2308       F  0.92980816  0.73203366  0.00240863    -0.13340
C2309       C  0.87559630  0.79948022  0.00709522     0.24670
C2310       C  0.89305850  0.82341380  0.02668217    -0.23430
C2311       C  0.91466548  0.84388930  0.00054814     0.19580
C2312       C  0.91653134  0.84052576  0.95735080     0.24620
C2313       C  0.90325065  0.81713030  0.93801587    -0.23380
C2314       C  0.88050930  0.79644278  0.96388206     0.19520
F2315       F  0.86462966  0.77308425  0.94731224    -0.13340
F2316       F  0.85560980  0.77902668  0.52966626    -0.15700
F2317       F  0.93412237  0.86074370  0.93479326    -0.15700
F2318       F  0.93759548  0.86780806  0.01688492    -0.13340
C2319       C  0.89646215  0.88176255  0.78288206     0.24670
C2320       C  0.87525841  0.85761178  0.76203637    -0.23430
C2321       C  0.89250270  0.84301088  0.77356800     0.19580
C2322       C  0.93262228  0.85274104  0.79992254     0.24620
C2323       C  0.95488119  0.87654274  0.82160972    -0.23380
C2324       C  0.93559741  0.89103853  0.81233444     0.19520
F2325       F  0.95757059  0.91491171  0.82883455    -0.13340
F2326       F  0.88162084  0.89697078  0.77332151    -0.15700
F2327       F  0.95510591  0.83980956  0.79814251    -0.15700
F2328       F  0.87402966  0.81944290  0.75648476    -0.13340
C2329       C  0.73242710  0.69832982  0.63422809     0.24670
C2330       C  0.77320626  0.72397093  0.63634587    -0.23430
C2331       C  0.81803193  0.73049123  0.65677006     0.19580
C2332       C  0.82204619  0.71210499  0.67359143     0.24620
C2333       C  0.78171857  0.68637524  0.67072223    -0.23380
C2334       C  0.73637626  0.68000027  0.65123956     0.19520
F2335       F  0.69673199  0.65546383  0.64547863    -0.13340
F2336       F  0.68836811  0.69075277  0.61559104    -0.15700
F2337       F  0.86713464  0.71947497  0.69010584    -0.15700
F2338       F  0.85941995  0.75482140  0.65953822    -0.13340
C2339       C  0.72818487  0.93805283  0.63966573     0.24670
C2340       C  0.67962083  0.93446044  0.64994583    -0.23430
C2341       C  0.63533889  0.91230229  0.63381397     0.19580
C2342       C  0.63758769  0.89137527  0.62002045     0.24620
C2343       C  0.68497390  0.89329943  0.61955667    -0.23380
C2344       C  0.73085161  0.91744076  0.62530285     0.19520
F2345       F  0.77798672  0.92045466  0.62152496    -0.13340
F2346       F  0.77218853  0.95967412  0.65230154    -0.15700
F2347       F  0.59280534  0.86866201  0.61268576    -0.15700
F2348       F  0.58800207  0.90889580  0.64065481    -0.13340
C2349       C  0.68803396  0.86086507  0.45241781     0.24670
C2350       C  0.72833156  0.87107282  0.47943518    -0.23430
C2351       C  0.75953072  0.89739276  0.98749631     0.19580
C2352       C  0.74828203  0.91306746  0.97058684     0.24620
C2353       C  0.70533170  0.90242206  0.94618198    -0.23380
C2354       C  0.67647563  0.87635498  0.43615964     0.19520
F2355       F  0.63667957  0.86581216  0.41060603    -0.13340
F2356       F  0.65818358  0.83560580  0.44327316    -0.15700
F2357       F  0.77723040  0.93829497  0.97988855    -0.15700
F2358       F  0.79801112  0.90764965  0.01419753    -0.13340
C2359       C  0.66868582  0.70668223  0.71259297     0.24670
C2360       C  0.64926501  0.72212146  0.71746163    -0.23430
C2361       C  0.59449319  0.70964614  0.72136986     0.19580
C2362       C  0.56201557  0.68439925  0.70698112     0.24620
C2363       C  0.58285412  0.67010622  0.69427149    -0.23380
C2364       C  0.63467754  0.68044446  0.70358514     0.19520
F2365       F  0.65158418  0.66507530  0.70472287    -0.13340
F2366       F  0.71966845  0.71681069  0.71781082    -0.15700
F2367       F  0.51006052  0.67366954  0.70685403    -0.15700
F2368       F  0.57234051  0.72219769  0.73674782    -0.13340
C2369       C  0.03143991  0.66360997  0.75780300     0.24670
C2370       C  0.03762751  0.66166107  0.71496855    -0.23430
C2371       C  0.08751463  0.66850758  0.69814843     0.19580
C2372       C  0.12870820  0.67610431  0.72303912     0.24620
C2373       C  0.12196559  0.67719199  0.76573224    -0.23380
C2374       C  0.07283202  0.67119735  0.78275757     0.19520
F2375       F  0.06458774  0.67269174  0.82386434    -0.13340
F2376       F  0.98512341  0.65785875  0.77584202    -0.15700
F2377       F  0.17484603  0.68153346  0.70503275    -0.15700
F2378       F  0.09733322  0.66809215  0.65721025    -0.13340
C2379       C  0.06479089  0.61914194  0.96790882     0.24670
C2380       C  0.11246957  0.63821681  0.98465622    -0.23430
C2381       C  0.11754224  0.66006361  0.00306093     0.19580
C2382       C  0.07905699  0.66449751  0.99938339     0.24620
C2383       C  0.03197185  0.64592958  0.98134270    -0.23380
C2384       C  0.02435055  0.62283329  0.96679489     0.19520
F2385       F  0.97825513  0.60403923  0.45161785    -0.13340
F2386       F  0.05841865  0.59738987  0.45111909    -0.15700
F2387       F  0.08749062  0.68697944  0.01457033    -0.15700
F2388       F  0.16070795  0.67779880  0.02302941    -0.13340
C2389       C  0.26438963  0.80884862  0.88630660     0.24670
C2390       C  0.21141750  0.79598101  0.87845759    -0.23430
C2391       C  0.18601749  0.77095172  0.86157028     0.19580
C2392       C  0.21337378  0.75973671  0.85055831     0.24620
C2393       C  0.26661817  0.77282355  0.85720202    -0.23380
C2394       C  0.29180689  0.79738523  0.87579948     0.19520
F2395       F  0.34293232  0.81026870  0.88384353    -0.13340
F2396       F  0.28977887  0.83253221  0.90373838    -0.15700
F2397       F  0.18673641  0.73538059  0.83554718    -0.15700
F2398       F  0.13405805  0.75695349  0.85612096    -0.13340
C2399       C  0.35965221  0.59389902  0.94734726     0.24670
C2400       C  0.37340683  0.60400382  0.98753552    -0.23430
C2401       C  0.35477357  0.61818243  0.50661013     0.19580
C2402       C  0.32134209  0.62141612  0.98676161     0.24620
C2403       C  0.30715861  0.61136445  0.94631961    -0.23380
C2404       C  0.32765800  0.59798119  0.92657938     0.19520
F2405       F  0.31558196  0.58821962  0.88774521    -0.13340
F2406       F  0.37638834  0.57961539  0.92856591    -0.15700
F2407       F  0.30287249  0.63444882  0.00774804    -0.15700
F2408       F  0.36579252  0.62739072  0.54585088    -0.13340
C2409       C  0.39485685  0.65935584  0.66610066     0.24670
C2410       C  0.36131180  0.63334082  0.65588407    -0.23430
C2411       C  0.30739392  0.62210383  0.66282360     0.19580
C2412       C  0.28824009  0.63529391  0.68506076     0.24620
C2413       C  0.32244625  0.65989509  0.70150027    -0.23380
C2414       C  0.37565266  0.67245044  0.68948110     0.19520
F2415       F  0.40978229  0.69624923  0.70466858    -0.13340
F2416       F  0.44666266  0.67146022  0.65701635    -0.15700
F2417       F  0.23654248  0.62281033  0.69539686    -0.15700
F2418       F  0.27320663  0.59759786  0.65079213    -0.13340
C2419       C  0.50582408  0.81502794  0.86184816     0.24670
C2420       C  0.52301937  0.83211154  0.83131253    -0.23430
C2421       C  0.50944061  0.82252018  0.79051496     0.19580
C2422       C  0.47796864  0.79662486  0.78086236     0.24620
C2423       C  0.46127740  0.77959791  0.81121874    -0.23380
C2424       C  0.47630334  0.78904538  0.85181681     0.19520
F2425       F  0.46119769  0.77320805  0.88242022    -0.13340
F2426       F  0.51852154  0.82339547  0.90112641    -0.15700
F2427       F  0.46440764  0.78820448  0.74174389    -0.15700
F2428       F  0.52598923  0.83820503  0.75956726    -0.13340
C2429       C  0.48854029  0.69878126  0.98077818     0.24670
C2430       C  0.45529441  0.70651491  0.97650801    -0.23430
C2431       C  0.47440917  0.73224120  0.97698938     0.19580
C2432       C  0.52606452  0.75023537  0.98309104     0.24620
C2433       C  0.55941238  0.74278576  0.98997775    -0.23380
C2434       C  0.54057329  0.71678839  0.98745235     0.19520
F2435       F  0.57179464  0.70861111  0.49224814    -0.13340
F2436       F  0.47099720  0.67392992  0.97670599    -0.15700
F2437       F  0.54324543  0.77496656  0.98234708    -0.15700
F2438       F  0.44431755  0.74006658  0.96703466    -0.13340
C2439       C  0.46309672  0.77286761  0.58087850     0.24670
C2440       C  0.48031575  0.75963391  0.59873129    -0.23430
C2441       C  0.44860299  0.73300521  0.59471742     0.19580
C2442       C  0.40374750  0.72026771  0.57116225     0.24620
C2443       C  0.38910293  0.73371229  0.55037006    -0.23380
C2444       C  0.41867576  0.76026354  0.55731909     0.19520
F2445       F  0.40637419  0.77447954  0.53955939    -0.13340
F2446       F  0.49111938  0.79848448  0.58436918    -0.15700
F2447       F  0.37705038  0.69473830  0.56637047    -0.15700
F2448       F  0.46336299  0.71921507  0.61057916    -0.13340
loop_ 
_geom_bond_atom_site_label_1 
_geom_bond_atom_site_label_2 
_geom_bond_distance 
_geom_bond_site_symmetry_2 
_ccdc_geom_bond_type 
O1          Zr13   2.435       .  S
O1            C3   1.281       .  A
O2          Zr39   2.467       .  S
O2            C3   1.295       .  A
C3          C587   1.479       .  S
O4          Zr16   2.503       .  S
O4            C6   1.295       .  A
O5          Zr40   2.395       .  S
O5            C6   1.271       .  A
C6          C567   1.488       .  S
O7          Zr16   2.430       .  S
O7            C9   1.287       .  A
O8          Zr39   2.482       .  S
O8            C9   1.298       .  A
C9          C577   1.482       .  S
O10         Zr13   2.401       .  S
O10          C12   1.270       .  A
O11         Zr40   2.418       .  S
O11          C12   1.282       .  A
C12         C594   1.425       .  S
Zr13         O14   2.434       .  S
Zr13         O15   2.451       .  S
Zr13         O19   2.336       .  S
Zr13         O20   2.357       .  S
Zr13         O43   2.386       .  S
Zr13         O45   2.366       .  S
O14          H57   0.990       .  S
O15          H56   0.989       .  S
O15          H60   0.990       .  S
Zr16         O17   2.438       .  S
Zr16         O18   2.435       .  S
Zr16         O20   2.363       .  S
Zr16         O19   2.393       .  S
Zr16         O44   2.384       .  S
Zr16         O46   2.345       .  S
O17          H58   0.990       .  S
O17          H61   0.990       .  S
O18          H51   0.990       .  S
O19         Zr39   2.394       .  S
O20         Zr40   2.413       .  S
O20          H47   0.958       .  S
O21         Zr33   2.495       .  S
O21          C23   1.298       .  A
O22         Zr40   2.463       .  S
O22          C23   1.294       .  A
C23        C1219   1.531       .  S
O24         Zr36   2.438       .  S
O24          C26   1.285       .  A
O25         Zr39   2.474       .  S
O25          C26   1.298       .  A
C26         C537   1.503       .  S
O27         Zr36   2.422       .  S
O27          C29   1.270       .  A
O28         Zr40   2.440       .  S
O28          C29   1.281       .  A
C29         C544   1.467       .  S
O30         Zr33   2.427       .  S
O30          C32   1.279       .  A
O31         Zr39   2.449       .  S
O31          C32   1.292       .  A
C32         C557   1.474       .  S
Zr33         O34   2.438       .  S
Zr33         O35   2.435       .  S
Zr33         O41   2.344       .  S
Zr33         O42   2.401       .  S
Zr33         O45   2.345       .  S
Zr33         O43   2.342       .  S
O34          H54   0.989       .  S
O34          H59   0.990       .  S
O35          H55   0.990       .  S
Zr36         O37   2.427       .  S
Zr36         O38   2.434       .  S
Zr36         O42   2.345       .  S
Zr36         O41   2.413       .  S
Zr36         O46   2.373       .  S
Zr36         O44   2.372       .  S
O37          H53   0.990       .  S
O38          H52   0.988       .  S
O38          H62   0.989       .  S
Zr39         O42   2.392       .  S
Zr39         O44   2.403       .  S
Zr39         O45   2.403       .  S
Zr40         O41   2.408       .  S
Zr40         O43   2.380       .  S
Zr40         O46   2.409       .  S
O41          H49   0.960       .  S
O44          H48   0.965       .  S
O45          H50   0.954       .  S
O63         Zr75   2.463       .  S
O63          C65   1.286       .  A
O64        Zr101   2.376       .  S
O64          C65   1.276       .  A
C65         C514   1.468   1_554  S
O66         Zr78   2.576       .  S
O66          C68   1.315       .  A
O67        Zr102   2.362       .  S
O67          C68   1.278       .  A
C68         C494   1.520       .  S
O69         Zr78   2.382       .  S
O69          C71   1.278       .  A
O70        Zr101   2.410       .  S
O70          C71   1.287       .  A
C71        C1209   1.455   1_554  S
O72         Zr75   2.375       .  S
O72          C74   1.259       .  A
O73        Zr102   2.573       .  S
O73          C74   1.303       .  A
C74        C1086   1.536       .  S
Zr75         O77   2.438       .  S
Zr75        O688   2.434   1_554  S
Zr75         O81   2.350       .  S
Zr75         O82   2.414       .  S
Zr75        O105   2.414       .  S
Zr75        O107   2.324       .  S
O76        Zr687   2.434       .  S
O76         H119   0.990       .  S
O77         H118   0.990       .  S
O77         H122   0.991       .  S
Zr78         O80   2.436       .  S
Zr78        O691   2.438       .  S
Zr78         O82   2.290       .  S
Zr78         O81   2.434       .  S
Zr78        O106   2.388       .  S
Zr78        O108   2.310       .  S
O79        Zr690   2.438       .  S
O79         H120   0.990       .  S
O79         H123   0.990       .  S
O80         H113   0.990       .  S
O81        Zr101   2.383       .  S
O82        Zr102   2.406       .  S
O82         H109   0.960       .  S
O83         Zr95   2.502       .  S
O83          C85   1.297       .  A
O84        Zr102   2.448       .  S
O84          C85   1.295       .  A
C85         C484   1.531       .  S
O86         Zr98   2.545       .  S
O86          C88   1.305       .  A
O87        Zr101   2.402       .  S
O87          C88   1.281       .  A
C88         C604   1.522       .  S
O89         Zr98   2.411       .  S
O89          C91   1.275       .  A
O90        Zr102   2.549       .  S
O90          C91   1.305       .  A
C91         C524   1.509       .  S
O92         Zr95   2.440       .  S
O92          C94   1.290       .  A
O93        Zr101   2.463       .  S
O93          C94   1.294       .  A
C94         C507   1.485       .  S
Zr95         O96   2.433       .  S
Zr95         O97   2.434       .  S
Zr95        O103   2.359       .  S
Zr95        O104   2.412       .  S
Zr95        O107   2.384       .  S
Zr95        O105   2.376       .  S
O96         H116   0.990       .  S
O96         H121   0.990       .  S
O97         H117   0.990       .  S
Zr98         O99   2.434       .  S
Zr98        O100   2.437       .  S
Zr98        O104   2.359       .  S
Zr98        O103   2.432       .  S
Zr98        O108   2.404       .  S
Zr98        O106   2.314       .  S
O99         H115   0.990       .  S
O100        H114   0.988       .  S
O100        H124   0.988       .  S
Zr101       O104   2.380       .  S
Zr101       O106   2.379       .  S
Zr101       O107   2.368       .  S
Zr102       O103   2.418       .  S
Zr102       O105   2.398       .  S
Zr102       O108   2.386       .  S
O103        H111   0.966       .  S
O106        H110   0.963       .  S
O107        H112   0.963       .  S
O125       Zr137   2.411       .  S
O125        C127   1.269   1_554  A
O126       Zr775   2.443       .  S
O126        C739   1.285       .  A
C127        O738   1.285       .  A
C127       C1076   1.456   1_655  S
O128       Zr140   2.445   1_455  S
O128        C130   1.286   1_455  A
O129       Zr164   2.494       .  S
O129        C130   1.299       .  A
C130        C534   1.512   1_655  S
O131       Zr140   2.389       .  S
O131        C745   1.264   1_554  A
O132       Zr775   2.468       .  S
O132        C133   1.276       .  A
C133        O743   1.264       .  A
C133        C547   1.465   1_655  S
O134       Zr137   2.388       .  S
O134        C136   1.278       .  A
O135       Zr164   2.402       .  S
O135        C136   1.285       .  A
C136        C454   1.459       .  S
Zr137       O138   2.433   1_655  S
Zr137       O139   2.433       .  S
Zr137       O143   2.323       .  S
Zr137       O144   2.352       .  S
Zr137       O167   2.347       .  S
Zr137       O169   2.353       .  S
O138        H181   0.990       .  S
O139        H180   0.990       .  S
O139        H184   0.990       .  S
Zr140       O141   2.430   1_655  S
Zr140       O142   2.437       .  S
Zr140       O144   2.377       .  S
Zr140       O143   2.367       .  S
Zr140       O168   2.396       .  S
Zr140       O170   2.321       .  S
O141        H182   0.989       .  S
O141        H185   0.990       .  S
O142        H175   0.990       .  S
O143       Zr163   2.425       .  S
O144       Zr164   2.394       .  S
O144        H171   0.964       .  S
O145       Zr157   2.366       .  S
O145        C147   1.250       .  A
O146       Zr164   2.561       .  S
O146        C147   1.299       .  A
C147        C497   1.520       .  S
O148       Zr160   2.521       .  S
O148        C150   1.304   1_554  A
O149       Zr775   2.355       .  S
O149        C762   1.277       .  A
C150        O761   1.277       .  A
C150       C1036   1.474       .  S
O151       Zr160   2.487       .  S
O151        C153   1.300       .  A
O152       Zr164   2.476       .  S
O152        C153   1.299       .  A
C153        C434   1.519       .  S
O154       Zr157   2.360       .  S
O154        C156   1.256   1_554  A
O155       Zr163   2.566   1_556  S
O155        C156   1.306       .  A
C156        C444   1.512       .  S
Zr157       O158   2.424       .  S
Zr157       O159   2.423       .  S
Zr157       O165   2.400       .  S
Zr157       O166   2.341       .  S
Zr157       O169   2.374       .  S
Zr157       O167   2.367       .  S
O158        H178   0.989       .  S
O158        H183   0.989       .  S
O159        H179   0.989       .  S
Zr160       O161   2.435       .  S
Zr160       O162   2.436       .  S
Zr160       O166   2.374       .  S
Zr160       O165   2.381       .  S
Zr160       O170   2.384       .  S
Zr160       O168   2.362       .  S
O161        H177   0.990       .  S
O162        H176   0.990       .  S
O162        H186   0.990       .  S
Zr163       O738   2.443   1_554  S
Zr163       O744   2.468   1_554  S
Zr163       O761   2.355   1_554  S
Zr163       O166   2.383       .  S
Zr163       O168   2.450       .  S
Zr163       O169   2.377       .  S
Zr164       O165   2.431       .  S
Zr164       O167   2.383       .  S
Zr164       O170   2.400       .  S
O165        H173   0.966       .  S
O168        H172   0.966       .  S
O169        H174   0.964       .  S
O187       Zr199   2.397       .  S
O187        C189   1.279       .  A
O188       Zr225   2.459       .  S
O188        C189   1.292       .  A
C189        C554   1.484       .  S
O190       Zr202   2.393       .  S
O190        C192   1.272       .  A
O191       Zr226   2.558       .  S
O191        C192   1.306       .  A
C192        C397   1.514       .  S
O193       Zr202   2.470       .  S
O193        C195   1.292       .  A
O194       Zr225   2.370       .  S
O194        C195   1.273       .  A
C195        C417   1.484       .  S
O196       Zr199   2.419       .  S
O196        C198   1.270   1_455  A
O197       Zr226   2.416   1_655  S
O197        C198   1.271       .  A
C198        C457   1.438       .  S
Zr199       O200   2.434       .  S
Zr199       O201   2.436       .  S
Zr199       O205   2.363       .  S
Zr199       O206   2.358       .  S
Zr199       O229   2.328       .  S
Zr199       O231   2.363       .  S
O200        H243   0.990       .  S
O201        H242   0.990       .  S
O201        H246   0.990       .  S
Zr202       O203   2.438       .  S
Zr202       O204   2.434       .  S
Zr202       O206   2.413       .  S
Zr202       O205   2.342       .  S
Zr202       O230   2.364       .  S
Zr202       O232   2.386       .  S
O203        H244   0.990       .  S
O203        H247   0.990       .  S
O204        H237   0.990       .  S
O205       Zr225   2.370       .  S
O206       Zr226   2.433       .  S
O206        H233   0.966       .  S
O207       Zr219   2.378   1_655  S
O207        C209   1.256       .  A
O208       Zr226   2.618   1_655  S
O208        C209   1.305       .  A
C209        C477   1.534       .  S
O210       Zr222   2.433       .  S
O210        C212   1.289       .  A
O211       Zr225   2.399       .  S
O211        C212   1.286       .  A
C212       C1016   1.465       .  S
O213       Zr222   2.656       .  S
O213        C215   1.317       .  A
O214       Zr226   2.345       .  S
O214        C215   1.244       .  A
C215        C487   1.535   1_455  S
O216       Zr219   2.429       .  S
O216        C218   1.270       .  A
O217       Zr225   2.421       .  S
O217        C218   1.274       .  A
C218        C467   1.483       .  S
Zr219       O220   2.420   1_455  S
Zr219       O221   2.429   1_455  S
Zr219       O227   2.413       .  S
Zr219       O228   2.324       .  S
Zr219       O231   2.362       .  S
Zr219       O229   2.351       .  S
O220        H240   0.990   1_655  S
O220        H245   0.988       .  S
O221        H241   0.990       .  S
Zr222       O223   2.433       .  S
Zr222       O224   2.436       .  S
Zr222       O228   2.413       .  S
Zr222       O227   2.286       .  S
Zr222       O232   2.315       .  S
Zr222       O230   2.438       .  S
O223        H239   0.990       .  S
O224        H238   0.990       .  S
O224        H248   0.990       .  S
Zr225       O228   2.379       .  S
Zr225       O230   2.425       .  S
Zr225       O231   2.390       .  S
Zr226       O227   2.428       .  S
Zr226       O229   2.395       .  S
Zr226       O232   2.376       .  S
O227        H235   0.961       .  S
O230        H234   0.966       .  S
O231        H236   0.963       .  S
O249       Zr261   2.461       .  S
O249        C251   1.294       .  A
O250       Zr287   2.457       .  S
O250        C251   1.294       .  A
C251        C574   1.496       .  S
O252       Zr264   2.406       .  S
O252        C254   1.281       .  A
O253       Zr288   2.375       .  S
O253        C254   1.272       .  A
C254        C377   1.450       .  S
O255       Zr264   2.442       .  S
O255        C257   1.285       .  A
O256       Zr287   2.479       .  S
O256        C257   1.298       .  A
C257        C527   1.499       .  S
O258       Zr261   2.533       .  S
O258       C1484   1.304   1_545  A
O259      Zr1512   2.423       .  S
O259        C260   1.287       .  A
C260       O1482   1.304       .  A
C260        C394   1.527       .  S
Zr261       O262   2.434       .  S
Zr261       O263   2.435       .  S
Zr261       O267   2.396       .  S
Zr261       O268   2.370       .  S
Zr261       O291   2.346       .  S
Zr261       O293   2.391       .  S
O262        H305   0.990       .  S
O263        H304   0.990       .  S
O263        H308   0.990       .  S
Zr264       O265   2.435       .  S
Zr264       O266   2.434       .  S
Zr264       O268   2.383       .  S
Zr264       O267   2.358       .  S
Zr264       O292   2.380       .  S
Zr264       O294   2.378       .  S
O265        H306   0.990       .  S
O265        H309   0.990       .  S
O266        H299   0.990       .  S
O267       Zr287   2.398       .  S
O268       Zr288   2.393       .  S
O268        H295   0.966       .  S
O269      Zr1505   2.437       .  S
O269        C271   1.288       .  A
O270      Zr1512   2.364       .  S
O270        C271   1.275       .  A
C271        C407   1.453       .  S
O272       Zr284   2.404       .  S
O272        C274   1.272       .  A
O273       Zr287   2.521       .  S
O273        C274   1.301       .  A
C274        C447   1.517       .  S
O275       Zr284   2.456       .  S
O275        C277   1.289       .  A
O276      Zr1512   2.469       .  S
O276       C1501   1.293       .  A
C277       O1500   1.293   1_545  A
C277       C1608   1.501   1_545  S
O278       Zr281   2.417       .  S
O278        C280   1.283       .  A
O279       Zr287   2.446       .  S
O279        C280   1.293       .  A
C280       C1176   1.471   1_554  S
Zr281      O1493   2.437   1_545  S
Zr281       O283   2.434       .  S
Zr281       O894   2.434   1_554  S
Zr281       O289   2.360       .  S
Zr281       O290   2.362       .  S
Zr281       O293   2.372       .  S
Zr281       O291   2.355       .  S
O282       Zr893   2.434       .  S
O282        H302   0.990       .  S
O282        H307   0.990       .  S
O283        H303   0.990       .  S
Zr284       O286   2.420       .  S
Zr284       O897   2.433   1_554  S
Zr284       O290   2.377       .  S
Zr284       O289   2.360       .  S
Zr284       O294   2.344       .  S
Zr284       O292   2.408       .  S
O285       Zr896   2.433       .  S
O285        H301   0.990       .  S
O286        H300   0.990       .  S
O286        H310   0.990       .  S
Zr287       O290   2.400       .  S
Zr287       O292   2.399       .  S
Zr287       O293   2.419       .  S
Zr288      O1483   2.423   1_545  S
Zr288      O1494   2.364   1_545  S
Zr288      O1500   2.469   1_545  S
Zr288       O289   2.377       .  S
Zr288       O291   2.369       .  S
Zr288       O294   2.368       .  S
O289        H297   0.966       .  S
O292        H296   0.966       .  S
O293        H298   0.965       .  S
O311       Zr323   2.421       .  S
O311        C313   1.274       .  A
O312       Zr349   2.436       .  S
O312        C313   1.281       .  A
C313        C414   1.479       .  S
O314       Zr326   2.376       .  S
O314        C316   1.276       .  A
O315       Zr350   2.478       .  S
O315        C316   1.294       .  A
C316        C504   1.471       .  S
O317       Zr326   2.373       .  S
O317        C319   1.274       .  A
O318       Zr349   2.499       .  S
O318        C319   1.301       .  A
C319        C584   1.484       .  S
O320       Zr323   2.433       .  S
O320        C322   1.287       .  A
O321       Zr350   2.331       .  S
O321        C322   1.272       .  A
C322        C374   1.431       .  S
Zr323       O324   2.433       .  S
Zr323       O325   2.441       .  S
Zr323       O329   2.363       .  S
Zr323       O330   2.348       .  S
Zr323       O353   2.346       .  S
Zr323       O355   2.377       .  S
O324        H367   0.990       .  S
O325        H366   0.988       .  S
O325        H370   0.990       .  S
Zr326       O327   2.438       .  S
Zr326       O328   2.433       .  S
Zr326       O330   2.356       .  S
Zr326       O329   2.341       .  S
Zr326       O354   2.353       .  S
Zr326       O356   2.353       .  S
O327        H368   0.990       .  S
O327        H371   0.989       .  S
O328        H361   0.990       .  S
O329       Zr349   2.391       .  S
O330       Zr350   2.367       .  S
O330        H357   0.965       .  S
O331      Zr1567   2.414   1_545  S
O331        C333   1.268       .  A
O332      Zr1574   2.482   1_545  S
O332        C333   1.290       .  A
C333        C427   1.497       .  S
O334       Zr346   2.458       .  S
O334        C336   1.293       .  A
O335       Zr349   2.422       .  S
O335        C336   1.292       .  A
C336        C517   1.466       .  S
O337       Zr346   2.573       .  S
O337        C339   1.294       .  A
O338       Zr350   2.371       .  S
O338        C339   1.254       .  A
C339       C1661   1.530       .  S
O340       Zr343   2.386       .  S
O340        C342   1.275       .  A
O341       Zr349   2.537       .  S
O341        C342   1.308       .  A
C342        C387   1.499       .  S
Zr343      O1555   2.414       .  S
Zr343      O1568   2.434       .  S
Zr343      O1569   2.431       .  S
Zr343       O351   2.372       .  S
Zr343       O352   2.364       .  S
Zr343       O355   2.360       .  S
Zr343       O353   2.377       .  S
O344      Zr1567   2.434   1_545  S
O344        H364   0.985       .  S
O344        H369   0.989       .  S
O345      Zr1567   2.431   1_545  S
O345        H365   0.990       .  S
Zr346       O347   2.435       .  S
Zr346       O348   2.435       .  S
Zr346       O352   2.422       .  S
Zr346       O351   2.349       .  S
Zr346       O356   2.381       .  S
Zr346       O354   2.409       .  S
O347        H363   0.990       .  S
O348        H362   0.990       .  S
O348        H372   0.990       .  S
Zr349       O352   2.406       .  S
Zr349       O354   2.421       .  S
Zr349       O355   2.400       .  S
Zr350      O1556   2.482       .  S
Zr350       O351   2.425       .  S
Zr350       O353   2.402       .  S
Zr350       O356   2.376       .  S
O351        H359   0.959       .  S
O354        H358   0.965       .  S
O355        H360   0.964       .  S
C373        C374   1.395       .  A
C373        C378   1.382       .  A
C373        F380   1.359       .  S
C374       C1599   1.401       .  A
C375        C376   1.378       .  A
C375       C1598   1.401   1_545  A
C375        F382   1.360       .  S
C376        C377   1.405       .  A
C376        F381   1.359       .  S
C377       C1602   1.411   1_545  A
C378       C1601   1.411       .  A
C378        F379   1.358       .  S
C383       C1608   1.409       .  A
C383       C1612   1.411       .  A
C383        F390   1.358   1_565  S
C384       C1501   1.501       .  S
C384        C385   1.407       .  A
C384       C1607   1.409       .  A
C385        C386   1.412       .  A
C385        F392   1.358       .  S
C386        C999   1.411       .  A
C386        F391   1.350   1_554  S
C387        C998   1.411       .  A
C387       C1000   1.413       .  A
C388       C1607   1.411       .  A
C388        C999   1.413       .  A
C388       F2225   1.358       .  S
F389       C2224   1.358       .  S
C393        C394   1.415       .  A
C393        C398   1.401       .  A
C393        F400   1.353       .  S
C394        C395   1.417       .  A
C395        C396   1.429       .  A
C395        F402   1.357       .  S
C396        C397   1.418       .  A
C396        F401   1.357       .  S
C397        C398   1.408       .  A
C398        F399   1.359       .  S
C403        C404   1.406       .  A
C403        C408   1.385       .  A
C403        F410   1.359       .  S
C404        C824   1.465   1_554  S
C404       C1017   1.407       .  A
C405       C1016   1.407       .  A
C405       C1018   1.387       .  A
C405        F412   1.358       .  S
C406        C407   1.403       .  A
C406       C1017   1.387       .  A
C406       F1023   1.359       .  S
C407        C408   1.405       .  A
C408        F409   1.359       .  S
F411       C1018   1.359       .  S
C413        C414   1.406       .  A
C413        C418   1.392       .  A
C413        F420   1.357       .  S
C414        C415   1.400       .  A
C415        C416   1.400       .  A
C415        F422   1.355       .  S
C416        C417   1.417       .  A
C416        F421   1.358       .  S
C417        C418   1.407       .  A
C418        F419   1.358       .  S
C423        C424   1.403       .  A
C423        C428   1.397       .  A
C423        F430   1.359       .  S
C424        C762   1.474       .  S
C424        C425   1.403       .  A
C425        C426   1.407       .  A
C425        F432   1.357       .  S
C426        C427   1.411       .  A
C426        F431   1.357       .  S
C427        C428   1.402       .  A
C428        F429   1.337       .  S
C433        C434   1.423       .  A
C433        C438   1.430       .  A
C433        F440   1.357       .  S
C434        C435   1.407       .  A
C435        C436   1.394       .  A
C435        F442   1.358       .  S
C436        C437   1.416       .  A
C436        F441   1.352   1_545  S
C437       C1563   1.530       .  S
C437        C438   1.412       .  A
C438        F439   1.358       .  S
C443        C444   1.426   1_554  A
C443        C448   1.409       .  A
C443        F450   1.358       .  S
C444        C445   1.398       .  A
C445        C446   1.412       .  A
C445        F452   1.353       .  S
C446        C447   1.427   1_556  A
C446        F451   1.356       .  S
C447        C448   1.404       .  A
C448        F449   1.357       .  S
C453        C454   1.404       .  A
C453        C458   1.390       .  A
C453        F460   1.358       .  S
C454        C455   1.413   1_655  A
C455        C456   1.385       .  A
C455        F462   1.359       .  S
C456        C457   1.393   1_455  A
C456        F461   1.358       .  S
C457        C458   1.403       .  A
C458        F459   1.358       .  S
C463        C468   1.398       .  A
C463       C1076   1.403       .  A
C463        F470   1.358       .  S
C464        C739   1.456   1_455  S
C464        C465   1.398   1_455  A
C464       C1075   1.403       .  A
C465        C466   1.394   1_655  A
C465        F472   1.358       .  S
C466        C467   1.408       .  A
C466        F471   1.356   1_455  S
C467       C1080   1.411       .  A
C468       C1079   1.411       .  A
C468        F469   1.357       .  S
C473        C474   1.415       .  A
C473        C478   1.423       .  A
C473       F1092   1.357       .  S
C474        C686   1.536       .  S
C474        C475   1.425       .  A
C475        C476   1.419       .  A
C475        F482   1.354       .  S
C476        C477   1.411       .  A
C476        F481   1.357       .  S
C477        C478   1.426       .  A
C478        F479   1.358       .  S
F480       C1085   1.357       .  S
C483        C484   1.427       .  A
C483        C488   1.441       .  A
C483        F490   1.356       .  S
C484        C485   1.401       .  A
C485        C486   1.388       .  A
C485        F492   1.360       .  S
C486        C487   1.419       .  A
C486        F491   1.340       .  S
C487        C488   1.419       .  A
C488        F489   1.356       .  S
C493        C494   1.405       .  A
C493        C498   1.414       .  A
C493        F500   1.357       .  S
C494        C495   1.427       .  A
C495        C496   1.415       .  A
C495        F502   1.358       .  S
C496        C497   1.406       .  A
C496        F501   1.354       .  S
C497        C498   1.427       .  A
C498        F499   1.358       .  S
C503        C504   1.403       .  A
C503        C508   1.400       .  A
C503        F510   1.356       .  S
C504        C505   1.414       .  A
C505        C506   1.407       .  A
C505        F512   1.358       .  S
C506        C507   1.403       .  A
C506        F511   1.358       .  S
C507        C508   1.410       .  A
C508        F509   1.358       .  S
C513        C514   1.403       .  A
C513        C518   1.389       .  A
C513        F520   1.359       .  S
C514       C1127   1.409       .  A
C515        C516   1.403       .  A
C515       C1126   1.409       .  A
C515        F522   1.358       .  S
C516        C517   1.404       .  A
C516        F521   1.357       .  S
C517       C1130   1.405       .  A
C518       C1129   1.405       .  A
C518        F519   1.359       .  S
C523        C524   1.405       .  A
C523        C528   1.416       .  A
C523        F530   1.355       .  S
C524        C525   1.416       .  A
C525        C526   1.405       .  A
C525        F532   1.357       .  S
C526        C527   1.400       .  A
C526        F531   1.355       .  S
C527        C528   1.409       .  A
C528        F529   1.351       .  S
C533        C534   1.409       .  A
C533        C538   1.410       .  A
C533        F540   1.357   1_455  S
C534        C535   1.422       .  A
C535        C536   1.404       .  A
C535        F542   1.355       .  S
C536        C537   1.403       .  A
C536        F541   1.358       .  S
C537        C538   1.418       .  A
C538        F539   1.358       .  S
C543        C544   1.412       .  A
C543        C548   1.403       .  A
C543       F1162   1.358       .  S
C544        C545   1.397       .  A
C545        C546   1.389       .  A
C545        F552   1.357       .  S
C546        C547   1.411       .  A
C546        F551   1.360       .  S
C547        C548   1.400       .  A
C548       F1161   1.357   1_455  S
F549       C1160   1.357   1_655  S
F550       C1155   1.358       .  S
C553        C554   1.405       .  A
C553        C558   1.403       .  A
C553        F560   1.353       .  S
C554        C555   1.413       .  A
C555        C556   1.390       .  A
C555        F562   1.359       .  S
C556        C557   1.403       .  A
C556        F561   1.358       .  S
C557        C558   1.410       .  A
C558        F559   1.358       .  S
C563        C564   1.409       .  A
C563        C568   1.404       .  A
C563        F570   1.358       .  S
C564        C892   1.471       .  S
C564       C1177   1.398       .  A
C565       C1176   1.398   1_554  A
C565       C1178   1.392   1_554  A
C565        F572   1.359       .  S
C566        C567   1.418       .  A
C566       C1177   1.392       .  A
C566        F571   1.358       .  S
C567        C568   1.406       .  A
C568        F569   1.357       .  S
C573        C574   1.411       .  A
C573        C578   1.411       .  A
C573        F580   1.355       .  S
C574        C575   1.409       .  A
C575        C576   1.399       .  A
C575        F582   1.358       .  S
C576        C577   1.406       .  A
C576        F581   1.358       .  S
C577        C578   1.409       .  A
C578        F579   1.358       .  S
C583        C584   1.396       .  A
C583        C588   1.400       .  A
C583        F590   1.358       .  S
C584        C585   1.421       .  A
C585        C586   1.396       .  A
C585        F592   1.353       .  S
C586        C587   1.391       .  A
C586        F591   1.358       .  S
C587        C588   1.421       .  A
C588        F589   1.355       .  S
C593        C594   1.391       .  A
C593        C598   1.387       .  A
C593        F600   1.358       .  S
C594        C595   1.402       .  A
C595        C596   1.375       .  A
C595        F602   1.355       .  S
C596        C597   1.400       .  A
C596        F601   1.359       .  S
C597        C683   1.455       .  S
C597        C598   1.417       .  A
C598       F1211   1.358       .  S
F599       C1210   1.358       .  S
C603        C604   1.416       .  A
C603        C608   1.412       .  A
C603        F610   1.358       .  S
C604        C605   1.413       .  A
C605        C606   1.421       .  A
C605        F612   1.357       .  S
C606        C607   1.421       .  A
C606        F611   1.357       .  S
C607        C635   1.531       .  S
C607        C608   1.415       .  A
C608        F609   1.358       .  S
O613       Zr625   2.435       .  S
O613        C615   1.281       .  A
O614       Zr651   2.467       .  S
O614        C615   1.295       .  A
C615       C1199   1.479       .  S
O616       Zr628   2.503       .  S
O616        C618   1.295       .  A
O617       Zr652   2.395       .  S
O617        C618   1.271       .  A
C618       C1179   1.488       .  S
O619       Zr628   2.430       .  S
O619        C621   1.287       .  A
O620       Zr651   2.482       .  S
O620        C621   1.298       .  A
C621       C1189   1.482       .  S
O622       Zr625   2.401       .  S
O622        C624   1.270       .  A
O623       Zr652   2.418       .  S
O623        C624   1.282       .  A
C624       C1206   1.425       .  S
Zr625       O626   2.434       .  S
Zr625       O627   2.451       .  S
Zr625       O631   2.336       .  S
Zr625       O632   2.357       .  S
Zr625       O655   2.386       .  S
Zr625       O657   2.366       .  S
O626        H669   0.990       .  S
O627        H668   0.989       .  S
O627        H672   0.990       .  S
Zr628       O629   2.438       .  S
Zr628       O630   2.435       .  S
Zr628       O632   2.363       .  S
Zr628       O631   2.393       .  S
Zr628       O656   2.384       .  S
Zr628       O658   2.345       .  S
O629        H670   0.990       .  S
O629        H673   0.990       .  S
O630        H663   0.990       .  S
O631       Zr651   2.394       .  S
O632       Zr652   2.413       .  S
O632        H659   0.958       .  S
O633       Zr645   2.495       .  S
O633        C635   1.298   1_556  A
O634       Zr652   2.463   1_554  S
O634        C635   1.294       .  A
O636       Zr648   2.438       .  S
O636        C638   1.285       .  A
O637       Zr651   2.474       .  S
O637        C638   1.298       .  A
C638       C1149   1.503       .  S
O639       Zr648   2.422       .  S
O639        C641   1.270       .  A
O640       Zr652   2.440       .  S
O640        C641   1.281       .  A
C641       C1156   1.467       .  S
O642       Zr645   2.427       .  S
O642        C644   1.279       .  A
O643       Zr651   2.449       .  S
O643        C644   1.292       .  A
C644       C1169   1.474       .  S
Zr645       O646   2.438       .  S
Zr645       O647   2.435       .  S
Zr645       O653   2.344       .  S
Zr645       O654   2.401       .  S
Zr645       O657   2.345       .  S
Zr645       O655   2.342       .  S
O646        H666   0.989       .  S
O646        H671   0.990       .  S
O647        H667   0.990       .  S
Zr648       O649   2.427       .  S
Zr648       O650   2.434       .  S
Zr648       O654   2.345       .  S
Zr648       O653   2.413       .  S
Zr648       O658   2.373       .  S
Zr648       O656   2.372       .  S
O649        H665   0.990       .  S
O650        H664   0.988       .  S
O650        H674   0.989       .  S
Zr651       O654   2.392       .  S
Zr651       O656   2.403       .  S
Zr651       O657   2.403       .  S
Zr652       O653   2.408       .  S
Zr652       O655   2.380       .  S
Zr652       O658   2.409       .  S
O653        H661   0.960       .  S
O656        H660   0.965       .  S
O657        H662   0.954       .  S
O675       Zr687   2.463       .  S
O675        C677   1.286       .  A
O676       Zr713   2.376       .  S
O676        C677   1.276       .  A
C677       C1126   1.468       .  S
O678       Zr690   2.576       .  S
O678        C680   1.315       .  A
O679       Zr714   2.362       .  S
O679        C680   1.278       .  A
C680       C1106   1.520       .  S
O681       Zr690   2.382       .  S
O681        C683   1.278       .  A
O682       Zr713   2.410       .  S
O682        C683   1.287       .  A
O684       Zr687   2.375       .  S
O684        C686   1.259       .  A
O685       Zr714   2.573       .  S
O685        C686   1.303       .  A
Zr687       O689   2.438       .  S
Zr687       O693   2.350       .  S
Zr687       O694   2.414       .  S
Zr687       O717   2.414       .  S
Zr687       O719   2.324       .  S
O688        H731   0.990       .  S
O689        H730   0.990       .  S
O689        H734   0.991       .  S
Zr690       O692   2.436       .  S
Zr690       O694   2.290       .  S
Zr690       O693   2.434       .  S
Zr690       O718   2.388       .  S
Zr690       O720   2.310       .  S
O691        H732   0.990   1_554  S
O691        H735   0.990       .  S
O692        H725   0.990       .  S
O693       Zr713   2.383       .  S
O694       Zr714   2.406       .  S
O694        H721   0.960       .  S
O695       Zr707   2.502       .  S
O695        C697   1.297       .  A
O696       Zr714   2.448       .  S
O696        C697   1.295       .  A
C697       C1096   1.531       .  S
O698       Zr710   2.545       .  S
O698        C700   1.305       .  A
O699       Zr713   2.402       .  S
O699        C700   1.281       .  A
C700       C1216   1.522       .  S
O701       Zr710   2.411       .  S
O701        C703   1.275       .  A
O702       Zr714   2.549       .  S
O702        C703   1.305       .  A
C703       C1136   1.509       .  S
O704       Zr707   2.440       .  S
O704        C706   1.290       .  A
O705       Zr713   2.463       .  S
O705        C706   1.294       .  A
C706       C1119   1.485       .  S
Zr707       O708   2.433       .  S
Zr707       O709   2.434       .  S
Zr707       O715   2.359       .  S
Zr707       O716   2.412       .  S
Zr707       O719   2.384       .  S
Zr707       O717   2.376       .  S
O708        H728   0.990       .  S
O708        H733   0.990       .  S
O709        H729   0.990       .  S
Zr710       O711   2.434       .  S
Zr710       O712   2.437       .  S
Zr710       O716   2.359       .  S
Zr710       O715   2.432       .  S
Zr710       O720   2.404       .  S
Zr710       O718   2.314       .  S
O711        H727   0.990       .  S
O712        H726   0.988       .  S
O712        H736   0.988       .  S
Zr713       O716   2.380       .  S
Zr713       O718   2.379       .  S
Zr713       O719   2.368       .  S
Zr714       O715   2.418       .  S
Zr714       O717   2.398       .  S
Zr714       O720   2.386       .  S
O715        H723   0.966       .  S
O718        H722   0.963       .  S
O719        H724   0.963       .  S
O737       Zr749   2.411       .  S
O737        C739   1.269       .  A
O740       Zr752   2.445   1_455  S
O740        C742   1.286   1_455  A
O741       Zr776   2.494       .  S
O741        C742   1.299       .  A
C742       C1146   1.512   1_655  S
O743       Zr752   2.389       .  S
O744        C745   1.276       .  A
C745       C1159   1.465   1_655  S
O746       Zr749   2.388       .  S
O746        C748   1.278       .  A
O747       Zr776   2.402       .  S
O747        C748   1.285       .  A
C748       C1066   1.459       .  S
Zr749       O750   2.433   1_655  S
Zr749       O751   2.433       .  S
Zr749       O755   2.323       .  S
Zr749       O756   2.352       .  S
Zr749       O779   2.347       .  S
Zr749       O781   2.353       .  S
O750        H793   0.990       .  S
O751        H792   0.990       .  S
O751        H796   0.990       .  S
Zr752       O753   2.430   1_655  S
Zr752       O754   2.437       .  S
Zr752       O756   2.377       .  S
Zr752       O755   2.367       .  S
Zr752       O780   2.396       .  S
Zr752       O782   2.321       .  S
O753        H794   0.989       .  S
O753        H797   0.990       .  S
O754        H787   0.990       .  S
O755       Zr775   2.425       .  S
O756       Zr776   2.394       .  S
O756        H783   0.964       .  S
O757       Zr769   2.366       .  S
O757        C759   1.250       .  A
O758       Zr776   2.561       .  S
O758        C759   1.299       .  A
C759       C1109   1.520       .  S
O760       Zr772   2.521       .  S
O760        C762   1.304       .  A
O763       Zr772   2.487       .  S
O763        C765   1.300       .  A
O764       Zr776   2.476       .  S
O764        C765   1.299       .  A
C765       C1046   1.519       .  S
O766       Zr769   2.360       .  S
O766        C768   1.256       .  A
O767       Zr775   2.566       .  S
O767        C768   1.306       .  A
C768       C1056   1.512       .  S
Zr769       O770   2.424       .  S
Zr769       O771   2.423       .  S
Zr769       O777   2.400       .  S
Zr769       O778   2.341       .  S
Zr769       O781   2.374       .  S
Zr769       O779   2.367       .  S
O770        H790   0.989       .  S
O770        H795   0.989       .  S
O771        H791   0.989       .  S
Zr772       O773   2.435       .  S
Zr772       O774   2.436       .  S
Zr772       O778   2.374       .  S
Zr772       O777   2.381       .  S
Zr772       O782   2.384       .  S
Zr772       O780   2.362       .  S
O773        H789   0.990       .  S
O774        H788   0.990       .  S
O774        H798   0.990       .  S
Zr775       O778   2.383       .  S
Zr775       O780   2.450       .  S
Zr775       O781   2.377       .  S
Zr776       O777   2.431       .  S
Zr776       O779   2.383       .  S
Zr776       O782   2.400       .  S
O777        H785   0.966       .  S
O780        H784   0.966       .  S
O781        H786   0.964       .  S
O799       Zr811   2.397       .  S
O799        C801   1.279       .  A
O800       Zr837   2.459       .  S
O800        C801   1.292       .  A
C801       C1166   1.484       .  S
O802       Zr814   2.393       .  S
O802        C804   1.272       .  A
O803       Zr838   2.558       .  S
O803        C804   1.306       .  A
C804       C1009   1.514       .  S
O805       Zr814   2.470       .  S
O805        C807   1.292       .  A
O806       Zr837   2.370       .  S
O806        C807   1.273       .  A
C807       C1029   1.484       .  S
O808       Zr811   2.419       .  S
O808        C810   1.270   1_455  A
O809       Zr838   2.416   1_655  S
O809        C810   1.271       .  A
C810       C1069   1.438       .  S
Zr811       O812   2.434       .  S
Zr811       O813   2.436       .  S
Zr811       O817   2.363       .  S
Zr811       O818   2.358       .  S
Zr811       O841   2.328       .  S
Zr811       O843   2.363       .  S
O812        H855   0.990       .  S
O813        H854   0.990       .  S
O813        H858   0.990       .  S
Zr814       O815   2.438       .  S
Zr814       O816   2.434       .  S
Zr814       O818   2.413       .  S
Zr814       O817   2.342       .  S
Zr814       O842   2.364       .  S
Zr814       O844   2.386       .  S
O815        H856   0.990       .  S
O815        H859   0.990       .  S
O816        H849   0.990       .  S
O817       Zr837   2.370       .  S
O818       Zr838   2.433       .  S
O818        H845   0.966       .  S
O819       Zr831   2.378   1_655  S
O819        C821   1.256       .  A
O820       Zr838   2.618   1_655  S
O820        C821   1.305       .  A
C821       C1089   1.534       .  S
O822       Zr834   2.433       .  S
O822        C824   1.289       .  A
O823       Zr837   2.399       .  S
O823        C824   1.286       .  A
O825       Zr834   2.656       .  S
O825        C827   1.317       .  A
O826       Zr838   2.345       .  S
O826        C827   1.244       .  A
C827       C1099   1.535   1_455  S
O828       Zr831   2.429       .  S
O828        C830   1.270       .  A
O829       Zr837   2.421       .  S
O829        C830   1.274       .  A
C830       C1079   1.483       .  S
Zr831       O832   2.420   1_455  S
Zr831       O833   2.429   1_455  S
Zr831       O839   2.413       .  S
Zr831       O840   2.324       .  S
Zr831       O843   2.362       .  S
Zr831       O841   2.351       .  S
O832        H852   0.990   1_656  S
O832        H857   0.988   1_556  S
O833        H853   0.990       .  S
Zr834       O835   2.433       .  S
Zr834       O836   2.436       .  S
Zr834       O840   2.413       .  S
Zr834       O839   2.286       .  S
Zr834       O844   2.315       .  S
Zr834       O842   2.438       .  S
O835        H851   0.990       .  S
O836        H850   0.990       .  S
O836        H860   0.990       .  S
Zr837       O840   2.379       .  S
Zr837       O842   2.425       .  S
Zr837       O843   2.390       .  S
Zr838       O839   2.428       .  S
Zr838       O841   2.395       .  S
Zr838       O844   2.376       .  S
O839        H847   0.961       .  S
O842        H846   0.966       .  S
O843        H848   0.963       .  S
O861       Zr873   2.461       .  S
O861        C863   1.294       .  A
O862       Zr899   2.457       .  S
O862        C863   1.294       .  A
C863       C1186   1.496       .  S
O864       Zr876   2.406       .  S
O864        C866   1.281       .  A
O865       Zr900   2.375       .  S
O865        C866   1.272       .  A
C866        C989   1.450       .  S
O867       Zr876   2.442       .  S
O867        C869   1.285       .  A
O868       Zr899   2.479       .  S
O868        C869   1.298       .  A
C869       C1139   1.499       .  S
O870       Zr873   2.533       .  S
O870       C2096   1.304   1_545  A
O871      Zr2124   2.423       .  S
O871        C872   1.287       .  A
C872       O2094   1.304       .  A
C872       C1006   1.527       .  S
Zr873       O874   2.434       .  S
Zr873       O875   2.435       .  S
Zr873       O879   2.396       .  S
Zr873       O880   2.370       .  S
Zr873       O903   2.346       .  S
Zr873       O905   2.391       .  S
O874        H917   0.990       .  S
O875        H916   0.990       .  S
O875        H920   0.990       .  S
Zr876       O877   2.435       .  S
Zr876       O878   2.434       .  S
Zr876       O880   2.383       .  S
Zr876       O879   2.358       .  S
Zr876       O904   2.380       .  S
Zr876       O906   2.378       .  S
O877        H918   0.990       .  S
O877        H921   0.990       .  S
O878        H911   0.990       .  S
O879       Zr899   2.398       .  S
O880       Zr900   2.393       .  S
O880        H907   0.966       .  S
O881      Zr2117   2.437       .  S
O881        C883   1.288       .  A
O882      Zr2124   2.364       .  S
O882        C883   1.275       .  A
C883       C1019   1.453       .  S
O884       Zr896   2.404       .  S
O884        C886   1.272       .  A
O885       Zr899   2.521       .  S
O885        C886   1.301       .  A
C886       C1059   1.517       .  S
O887       Zr896   2.456       .  S
O887        C889   1.289       .  A
O888      Zr2124   2.469       .  S
O888       C2113   1.293       .  A
C889       O2112   1.293   1_545  A
C889       C2220   1.501   1_545  S
O890       Zr893   2.417       .  S
O890        C892   1.283       .  A
O891       Zr899   2.446       .  S
O891        C892   1.293       .  A
Zr893      O2105   2.437   1_545  S
Zr893       O895   2.434       .  S
Zr893       O901   2.360       .  S
Zr893       O902   2.362       .  S
Zr893       O905   2.372       .  S
Zr893       O903   2.355       .  S
O894        H914   0.990       .  S
O894        H919   0.990       .  S
O895        H915   0.990       .  S
Zr896       O898   2.420       .  S
Zr896       O902   2.377       .  S
Zr896       O901   2.360       .  S
Zr896       O906   2.344       .  S
Zr896       O904   2.408       .  S
O897        H913   0.990       .  S
O898        H912   0.990       .  S
O898        H922   0.990       .  S
Zr899       O902   2.400       .  S
Zr899       O904   2.399       .  S
Zr899       O905   2.419       .  S
Zr900      O2095   2.423   1_545  S
Zr900      O2106   2.364   1_545  S
Zr900      O2112   2.469   1_545  S
Zr900       O901   2.377       .  S
Zr900       O903   2.369       .  S
Zr900       O906   2.368       .  S
O901        H909   0.966       .  S
O904        H908   0.966       .  S
O905        H910   0.965       .  S
O923       Zr935   2.421       .  S
O923        C925   1.274       .  A
O924       Zr961   2.436       .  S
O924        C925   1.281       .  A
C925       C1026   1.479       .  S
O926       Zr938   2.376       .  S
O926        C928   1.276       .  A
O927       Zr962   2.478       .  S
O927        C928   1.294       .  A
C928       C1116   1.471       .  S
O929       Zr938   2.373       .  S
O929        C931   1.274       .  A
O930       Zr961   2.499       .  S
O930        C931   1.301       .  A
C931       C1196   1.484       .  S
O932       Zr935   2.433       .  S
O932        C934   1.287       .  A
O933       Zr962   2.331       .  S
O933        C934   1.272       .  A
C934        C986   1.431       .  S
Zr935       O936   2.433       .  S
Zr935       O937   2.441       .  S
Zr935       O941   2.363       .  S
Zr935       O942   2.348       .  S
Zr935       O965   2.346       .  S
Zr935       O967   2.377       .  S
O936        H979   0.990       .  S
O937        H978   0.988       .  S
O937        H982   0.990       .  S
Zr938       O939   2.438       .  S
Zr938       O940   2.433       .  S
Zr938       O942   2.356       .  S
Zr938       O941   2.341       .  S
Zr938       O966   2.353       .  S
Zr938       O968   2.353       .  S
O939        H980   0.990       .  S
O939        H983   0.989       .  S
O940        H973   0.990       .  S
O941       Zr961   2.391       .  S
O942       Zr962   2.367       .  S
O942        H969   0.965       .  S
O943      Zr2179   2.414   1_545  S
O943        C945   1.268       .  A
O944      Zr2186   2.482   1_545  S
O944        C945   1.290       .  A
C945       C1039   1.497       .  S
O946       Zr958   2.458       .  S
O946        C948   1.293       .  A
O947       Zr961   2.422       .  S
O947        C948   1.292       .  A
C948       C1129   1.466       .  S
O949       Zr958   2.573       .  S
O949        C951   1.294       .  A
O950       Zr962   2.371       .  S
O950        C951   1.254       .  A
C951       C2273   1.530       .  S
O952       Zr955   2.386       .  S
O952        C954   1.275       .  A
O953       Zr961   2.537       .  S
O953        C954   1.308       .  A
C954        C999   1.499   1_556  S
Zr955      O2167   2.414       .  S
Zr955      O2180   2.434       .  S
Zr955      O2181   2.431       .  S
Zr955       O963   2.372       .  S
Zr955       O964   2.364       .  S
Zr955       O967   2.360       .  S
Zr955       O965   2.377       .  S
O956      Zr2179   2.434   1_545  S
O956        H976   0.985       .  S
O956        H981   0.989       .  S
O957      Zr2179   2.431   1_545  S
O957        H977   0.990       .  S
Zr958       O959   2.435       .  S
Zr958       O960   2.435       .  S
Zr958       O964   2.422       .  S
Zr958       O963   2.349       .  S
Zr958       O968   2.381       .  S
Zr958       O966   2.409       .  S
O959        H975   0.990       .  S
O960        H974   0.990       .  S
O960        H984   0.990       .  S
Zr961       O964   2.406       .  S
Zr961       O966   2.421       .  S
Zr961       O967   2.400       .  S
Zr962      O2168   2.482       .  S
Zr962       O963   2.425       .  S
Zr962       O965   2.402       .  S
Zr962       O968   2.376       .  S
O963        H971   0.959       .  S
O966        H970   0.965       .  S
O967        H972   0.964       .  S
C985        C986   1.395       .  A
C985        C990   1.382       .  A
C985        F992   1.359       .  S
C986       C2211   1.401       .  A
C987       C2210   1.401   1_545  A
C987        C988   1.378       .  A
C987        F994   1.360       .  S
C988        C989   1.405       .  A
C988        F993   1.359       .  S
C989       C2214   1.411   1_545  A
C990       C2213   1.411       .  A
C990        F991   1.358       .  S
C995       C2220   1.409       .  A
C995       C2224   1.411       .  A
C995       F1002   1.358   1_565  S
C996       C2113   1.501       .  S
C996       C2219   1.409       .  A
C996        C997   1.407       .  A
C997        C998   1.412       .  A
C997       F1004   1.358       .  S
C998       F1003   1.350       .  S
C1000      C2219   1.411       .  A
C1000      F1613   1.358       .  S
F1001      C1612   1.358       .  S
C1005      C1006   1.415       .  A
C1005      C1010   1.401       .  A
C1005      F1012   1.353       .  S
C1006      C1007   1.417       .  A
C1007      C1008   1.429       .  A
C1007      F1014   1.357       .  S
C1008      C1009   1.418       .  A
C1008      F1013   1.357       .  S
C1009      C1010   1.408       .  A
C1010      F1011   1.359       .  S
C1015      C1016   1.406       .  A
C1015      C1020   1.385       .  A
C1015      F1022   1.359       .  S
C1017      F1024   1.358       .  S
C1018      C1019   1.403       .  A
C1019      C1020   1.405       .  A
C1020      F1021   1.359       .  S
C1025      C1026   1.406       .  A
C1025      C1030   1.392       .  A
C1025      F1032   1.357       .  S
C1026      C1027   1.400       .  A
C1027      C1028   1.400       .  A
C1027      F1034   1.355       .  S
C1028      C1029   1.417       .  A
C1028      F1033   1.358       .  S
C1029      C1030   1.407       .  A
C1030      F1031   1.358       .  S
C1035      C1036   1.403       .  A
C1035      C1040   1.397       .  A
C1035      F1042   1.359       .  S
C1036      C1037   1.403       .  A
C1037      C1038   1.407       .  A
C1037      F1044   1.357       .  S
C1038      C1039   1.411       .  A
C1038      F1043   1.357       .  S
C1039      C1040   1.402       .  A
C1040      F1041   1.337       .  S
C1045      C1046   1.423       .  A
C1045      C1050   1.430       .  A
C1045      F1052   1.357       .  S
C1046      C1047   1.407       .  A
C1047      C1048   1.394       .  A
C1047      F1054   1.358       .  S
C1048      C1049   1.416       .  A
C1048      F1053   1.352   1_545  S
C1049      C2175   1.530       .  S
C1049      C1050   1.412       .  A
C1050      F1051   1.358       .  S
C1055      C1056   1.426       .  A
C1055      C1060   1.409       .  A
C1055      F1062   1.358       .  S
C1056      C1057   1.398       .  A
C1057      C1058   1.412       .  A
C1057      F1064   1.353       .  S
C1058      C1059   1.427       .  A
C1058      F1063   1.356       .  S
C1059      C1060   1.404       .  A
C1060      F1061   1.357       .  S
C1065      C1066   1.404       .  A
C1065      C1070   1.390       .  A
C1065      F1072   1.358       .  S
C1066      C1067   1.413   1_655  A
C1067      C1068   1.385       .  A
C1067      F1074   1.359       .  S
C1068      C1069   1.393   1_455  A
C1068      F1073   1.358       .  S
C1069      C1070   1.403       .  A
C1070      F1071   1.358       .  S
C1075      C1080   1.398       .  A
C1075      F1082   1.358       .  S
C1076      C1077   1.398   1_455  A
C1077      C1078   1.394   1_656  A
C1077      F1084   1.358   1_556  S
C1078      C1079   1.408   1_554  A
C1078      F1083   1.356   1_455  S
C1080      F1081   1.357       .  S
C1085      C1086   1.415       .  A
C1085      C1090   1.423   1_554  A
C1086      C1087   1.425       .  A
C1087      C1088   1.419   1_554  A
C1087      F1094   1.354       .  S
C1088      C1089   1.411       .  A
C1088      F1093   1.357       .  S
C1089      C1090   1.426       .  A
C1090      F1091   1.358       .  S
C1095      C1096   1.427       .  A
C1095      C1100   1.441       .  A
C1095      F1102   1.356       .  S
C1096      C1097   1.401       .  A
C1097      C1098   1.388       .  A
C1097      F1104   1.360       .  S
C1098      C1099   1.419       .  A
C1098      F1103   1.340       .  S
C1099      C1100   1.419       .  A
C1100      F1101   1.356       .  S
C1105      C1106   1.405       .  A
C1105      C1110   1.414       .  A
C1105      F1112   1.357       .  S
C1106      C1107   1.427       .  A
C1107      C1108   1.415       .  A
C1107      F1114   1.358       .  S
C1108      C1109   1.406       .  A
C1108      F1113   1.354       .  S
C1109      C1110   1.427       .  A
C1110      F1111   1.358       .  S
C1115      C1116   1.403       .  A
C1115      C1120   1.400       .  A
C1115      F1122   1.356       .  S
C1116      C1117   1.414       .  A
C1117      C1118   1.407       .  A
C1117      F1124   1.358       .  S
C1118      C1119   1.403       .  A
C1118      F1123   1.358       .  S
C1119      C1120   1.410       .  A
C1120      F1121   1.358       .  S
C1125      C1126   1.403       .  A
C1125      C1130   1.389       .  A
C1125      F1132   1.359       .  S
C1127      C1128   1.403       .  A
C1127      F1134   1.358   1_556  S
C1128      C1129   1.404       .  A
C1128      F1133   1.357       .  S
C1130      F1131   1.359       .  S
C1135      C1136   1.405       .  A
C1135      C1140   1.416       .  A
C1135      F1142   1.355       .  S
C1136      C1137   1.416       .  A
C1137      C1138   1.405       .  A
C1137      F1144   1.357       .  S
C1138      C1139   1.400       .  A
C1138      F1143   1.355       .  S
C1139      C1140   1.409       .  A
C1140      F1141   1.351       .  S
C1145      C1146   1.409       .  A
C1145      C1150   1.410       .  A
C1145      F1152   1.357   1_455  S
C1146      C1147   1.422       .  A
C1147      C1148   1.404       .  A
C1147      F1154   1.355       .  S
C1148      C1149   1.403       .  A
C1148      F1153   1.358       .  S
C1149      C1150   1.418       .  A
C1150      F1151   1.358       .  S
C1155      C1156   1.412       .  A
C1155      C1160   1.403       .  A
C1156      C1157   1.397   1_556  A
C1157      C1158   1.389   1_554  A
C1157      F1164   1.357       .  S
C1158      C1159   1.411       .  A
C1158      F1163   1.360   1_556  S
C1159      C1160   1.400       .  A
C1165      C1166   1.405       .  A
C1165      C1170   1.403       .  A
C1165      F1172   1.353       .  S
C1166      C1167   1.413       .  A
C1167      C1168   1.390       .  A
C1167      F1174   1.359       .  S
C1168      C1169   1.403       .  A
C1168      F1173   1.358       .  S
C1169      C1170   1.410       .  A
C1170      F1171   1.358       .  S
C1175      C1176   1.409       .  A
C1175      C1180   1.404       .  A
C1175      F1182   1.358       .  S
C1177      F1184   1.359       .  S
C1178      C1179   1.418       .  A
C1178      F1183   1.358   1_556  S
C1179      C1180   1.406       .  A
C1180      F1181   1.357       .  S
C1185      C1186   1.411       .  A
C1185      C1190   1.411       .  A
C1185      F1192   1.355       .  S
C1186      C1187   1.409       .  A
C1187      C1188   1.399       .  A
C1187      F1194   1.358       .  S
C1188      C1189   1.406       .  A
C1188      F1193   1.358       .  S
C1189      C1190   1.409       .  A
C1190      F1191   1.358       .  S
C1195      C1196   1.396       .  A
C1195      C1200   1.400       .  A
C1195      F1202   1.358       .  S
C1196      C1197   1.421       .  A
C1197      C1198   1.396       .  A
C1197      F1204   1.353       .  S
C1198      C1199   1.391       .  A
C1198      F1203   1.358       .  S
C1199      C1200   1.421       .  A
C1200      F1201   1.355       .  S
C1205      C1206   1.391       .  A
C1205      C1210   1.387       .  A
C1205      F1212   1.358       .  S
C1206      C1207   1.402       .  A
C1207      C1208   1.375       .  A
C1207      F1214   1.355       .  S
C1208      C1209   1.400       .  A
C1208      F1213   1.359       .  S
C1209      C1210   1.417       .  A
C1215      C1216   1.416       .  A
C1215      C1220   1.412       .  A
C1215      F1222   1.358       .  S
C1216      C1217   1.413       .  A
C1217      C1218   1.421       .  A
C1217      F1224   1.357       .  S
C1218      C1219   1.421       .  A
C1218      F1223   1.357       .  S
C1219      C1220   1.415       .  A
C1220      F1221   1.358       .  S
O1225     Zr1237   2.435       .  S
O1225      C1227   1.281       .  A
O1226     Zr1263   2.467       .  S
O1226      C1227   1.295       .  A
C1227      C1811   1.479       .  S
O1228     Zr1240   2.503       .  S
O1228      C1230   1.295       .  A
O1229     Zr1264   2.395       .  S
O1229      C1230   1.271       .  A
C1230      C1791   1.488       .  S
O1231     Zr1240   2.430       .  S
O1231      C1233   1.287       .  A
O1232     Zr1263   2.482       .  S
O1232      C1233   1.298       .  A
C1233      C1801   1.482       .  S
O1234     Zr1237   2.401       .  S
O1234      C1236   1.270       .  A
O1235     Zr1264   2.418       .  S
O1235      C1236   1.282       .  A
C1236      C1818   1.425       .  S
Zr1237     O1238   2.434       .  S
Zr1237     O1239   2.451       .  S
Zr1237     O1243   2.336       .  S
Zr1237     O1244   2.357       .  S
Zr1237     O1267   2.386       .  S
Zr1237     O1269   2.366       .  S
O1238      H1281   0.990       .  S
O1239      H1280   0.989       .  S
O1239      H1284   0.990       .  S
Zr1240     O1241   2.438       .  S
Zr1240     O1242   2.435       .  S
Zr1240     O1244   2.363       .  S
Zr1240     O1243   2.393       .  S
Zr1240     O1268   2.384       .  S
Zr1240     O1270   2.345       .  S
O1241      H1282   0.990       .  S
O1241      H1285   0.990       .  S
O1242      H1275   0.990       .  S
O1243     Zr1263   2.394       .  S
O1244     Zr1264   2.413       .  S
O1244      H1271   0.958       .  S
O1245     Zr1257   2.495       .  S
O1245      C1247   1.298       .  A
O1246     Zr1264   2.463       .  S
O1246      C1247   1.294       .  A
C1247      C2443   1.531       .  S
O1248     Zr1260   2.438       .  S
O1248      C1250   1.285       .  A
O1249     Zr1263   2.474       .  S
O1249      C1250   1.298       .  A
C1250      C1761   1.503       .  S
O1251     Zr1260   2.422       .  S
O1251      C1253   1.270       .  A
O1252     Zr1264   2.440       .  S
O1252      C1253   1.281       .  A
C1253      C1768   1.467       .  S
O1254     Zr1257   2.427       .  S
O1254      C1256   1.279       .  A
O1255     Zr1263   2.449       .  S
O1255      C1256   1.292       .  A
C1256      C1781   1.474       .  S
Zr1257     O1258   2.438       .  S
Zr1257     O1259   2.435       .  S
Zr1257     O1265   2.344       .  S
Zr1257     O1266   2.401       .  S
Zr1257     O1269   2.345       .  S
Zr1257     O1267   2.342       .  S
O1258      H1278   0.989       .  S
O1258      H1283   0.990       .  S
O1259      H1279   0.990       .  S
Zr1260     O1261   2.427       .  S
Zr1260     O1262   2.434       .  S
Zr1260     O1266   2.345       .  S
Zr1260     O1265   2.413       .  S
Zr1260     O1270   2.373       .  S
Zr1260     O1268   2.372       .  S
O1261      H1277   0.990       .  S
O1262      H1276   0.988       .  S
O1262      H1286   0.989       .  S
Zr1263     O1266   2.392       .  S
Zr1263     O1268   2.403       .  S
Zr1263     O1269   2.403       .  S
Zr1264     O1265   2.408       .  S
Zr1264     O1267   2.380       .  S
Zr1264     O1270   2.409       .  S
O1265      H1273   0.960       .  S
O1268      H1272   0.965       .  S
O1269      H1274   0.954       .  S
O1287     Zr1299   2.463       .  S
O1287      C1289   1.286       .  A
O1288     Zr1325   2.376       .  S
O1288      C1289   1.276       .  A
C1289      C1738   1.468   1_554  S
O1290     Zr1302   2.576       .  S
O1290      C1292   1.315       .  A
O1291     Zr1326   2.362       .  S
O1291      C1292   1.278       .  A
C1292      C1718   1.520       .  S
O1293     Zr1302   2.382       .  S
O1293      C1295   1.278       .  A
O1294     Zr1325   2.410       .  S
O1294      C1295   1.287       .  A
C1295      C2433   1.455   1_554  S
O1296     Zr1299   2.375       .  S
O1296      C1298   1.259       .  A
O1297     Zr1326   2.573       .  S
O1297      C1298   1.303       .  A
C1298      C2310   1.536       .  S
Zr1299     O1912   2.434   1_554  S
Zr1299     O1301   2.438       .  S
Zr1299     O1305   2.350       .  S
Zr1299     O1306   2.414       .  S
Zr1299     O1329   2.414       .  S
Zr1299     O1331   2.324       .  S
O1300     Zr1911   2.434       .  S
O1300      H1343   0.990       .  S
O1301      H1342   0.990       .  S
O1301      H1346   0.991       .  S
Zr1302     O1915   2.438       .  S
Zr1302     O1304   2.436       .  S
Zr1302     O1306   2.290       .  S
Zr1302     O1305   2.434       .  S
Zr1302     O1330   2.388       .  S
Zr1302     O1332   2.310       .  S
O1303     Zr1914   2.438       .  S
O1303      H1344   0.990       .  S
O1303      H1347   0.990       .  S
O1304      H1337   0.990       .  S
O1305     Zr1325   2.383       .  S
O1306     Zr1326   2.406       .  S
O1306      H1333   0.960       .  S
O1307     Zr1319   2.502       .  S
O1307      C1309   1.297       .  A
O1308     Zr1326   2.448       .  S
O1308      C1309   1.295       .  A
C1309      C1708   1.531       .  S
O1310     Zr1322   2.545       .  S
O1310      C1312   1.305       .  A
O1311     Zr1325   2.402       .  S
O1311      C1312   1.281       .  A
C1312      C1828   1.522       .  S
O1313     Zr1322   2.411       .  S
O1313      C1315   1.275       .  A
O1314     Zr1326   2.549       .  S
O1314      C1315   1.305       .  A
C1315      C1748   1.509       .  S
O1316     Zr1319   2.440       .  S
O1316      C1318   1.290       .  A
O1317     Zr1325   2.463       .  S
O1317      C1318   1.294       .  A
C1318      C1731   1.485       .  S
Zr1319     O1320   2.433       .  S
Zr1319     O1321   2.434       .  S
Zr1319     O1327   2.359       .  S
Zr1319     O1328   2.412       .  S
Zr1319     O1331   2.384       .  S
Zr1319     O1329   2.376       .  S
O1320      H1340   0.990       .  S
O1320      H1345   0.990       .  S
O1321      H1341   0.990       .  S
Zr1322     O1323   2.434       .  S
Zr1322     O1324   2.437       .  S
Zr1322     O1328   2.359       .  S
Zr1322     O1327   2.432       .  S
Zr1322     O1332   2.404       .  S
Zr1322     O1330   2.314       .  S
O1323      H1339   0.990       .  S
O1324      H1338   0.988       .  S
O1324      H1348   0.988       .  S
Zr1325     O1328   2.380       .  S
Zr1325     O1330   2.379       .  S
Zr1325     O1331   2.368       .  S
Zr1326     O1327   2.418       .  S
Zr1326     O1329   2.398       .  S
Zr1326     O1332   2.386       .  S
O1327      H1335   0.966       .  S
O1330      H1334   0.963       .  S
O1331      H1336   0.963       .  S
O1349     Zr1361   2.411       .  S
O1349      C1351   1.269   1_554  A
O1350     Zr1999   2.443       .  S
O1350      C1963   1.285       .  A
C1351      O1962   1.285       .  A
C1351      C2300   1.456   1_655  S
O1352     Zr1364   2.445   1_455  S
O1352      C1354   1.286   1_455  A
O1353     Zr1388   2.494       .  S
O1353      C1354   1.299       .  A
C1354      C1758   1.512   1_655  S
O1355     Zr1364   2.389       .  S
O1355      C1969   1.264   1_554  A
O1356     Zr1999   2.468       .  S
O1356      C1357   1.276       .  A
C1357      O1967   1.264       .  A
C1357      C1771   1.465   1_655  S
O1358     Zr1361   2.388       .  S
O1358      C1360   1.278       .  A
O1359     Zr1388   2.402       .  S
O1359      C1360   1.285       .  A
C1360      C1678   1.459       .  S
Zr1361     O1362   2.433   1_655  S
Zr1361     O1363   2.433       .  S
Zr1361     O1367   2.323       .  S
Zr1361     O1368   2.352       .  S
Zr1361     O1391   2.347       .  S
Zr1361     O1393   2.353       .  S
O1362      H1405   0.990       .  S
O1363      H1404   0.990       .  S
O1363      H1408   0.990       .  S
Zr1364     O1365   2.430   1_655  S
Zr1364     O1366   2.437       .  S
Zr1364     O1368   2.377       .  S
Zr1364     O1367   2.367       .  S
Zr1364     O1392   2.396       .  S
Zr1364     O1394   2.321       .  S
O1365      H1406   0.989       .  S
O1365      H1409   0.990       .  S
O1366      H1399   0.990       .  S
O1367     Zr1387   2.425       .  S
O1368     Zr1388   2.394       .  S
O1368      H1395   0.964       .  S
O1369     Zr1381   2.366       .  S
O1369      C1371   1.250       .  A
O1370     Zr1388   2.561       .  S
O1370      C1371   1.299       .  A
C1371      C1721   1.520       .  S
O1372     Zr1384   2.521       .  S
O1372      C1374   1.304   1_554  A
O1373     Zr1999   2.355       .  S
O1373      C1986   1.277       .  A
C1374      O1985   1.277       .  A
C1374      C2260   1.474       .  S
O1375     Zr1384   2.487       .  S
O1375      C1377   1.300       .  A
O1376     Zr1388   2.476       .  S
O1376      C1377   1.299       .  A
C1377      C1658   1.519       .  S
O1378     Zr1381   2.360       .  S
O1378      C1380   1.256   1_554  A
O1379     Zr1387   2.566   1_556  S
O1379      C1380   1.306       .  A
C1380      C1668   1.512       .  S
Zr1381     O1382   2.424       .  S
Zr1381     O1383   2.423       .  S
Zr1381     O1389   2.400       .  S
Zr1381     O1390   2.341       .  S
Zr1381     O1393   2.374       .  S
Zr1381     O1391   2.367       .  S
O1382      H1402   0.989       .  S
O1382      H1407   0.989       .  S
O1383      H1403   0.989       .  S
Zr1384     O1385   2.435       .  S
Zr1384     O1386   2.436       .  S
Zr1384     O1390   2.374       .  S
Zr1384     O1389   2.381       .  S
Zr1384     O1394   2.384       .  S
Zr1384     O1392   2.362       .  S
O1385      H1401   0.990       .  S
O1386      H1400   0.990       .  S
O1386      H1410   0.990       .  S
Zr1387     O1962   2.443   1_554  S
Zr1387     O1968   2.468   1_554  S
Zr1387     O1985   2.355   1_554  S
Zr1387     O1390   2.383       .  S
Zr1387     O1392   2.450       .  S
Zr1387     O1393   2.377       .  S
Zr1388     O1389   2.431       .  S
Zr1388     O1391   2.383       .  S
Zr1388     O1394   2.400       .  S
O1389      H1397   0.966       .  S
O1392      H1396   0.966       .  S
O1393      H1398   0.964       .  S
O1411     Zr1423   2.397       .  S
O1411      C1413   1.279       .  A
O1412     Zr1449   2.459       .  S
O1412      C1413   1.292       .  A
C1413      C1778   1.484       .  S
O1414     Zr1426   2.393       .  S
O1414      C1416   1.272       .  A
O1415     Zr1450   2.558       .  S
O1415      C1416   1.306       .  A
C1416      C1621   1.514       .  S
O1417     Zr1426   2.470       .  S
O1417      C1419   1.292       .  A
O1418     Zr1449   2.370       .  S
O1418      C1419   1.273       .  A
C1419      C1641   1.484       .  S
O1420     Zr1423   2.419       .  S
O1420      C1422   1.270   1_455  A
O1421     Zr1450   2.416   1_655  S
O1421      C1422   1.271       .  A
C1422      C1681   1.438       .  S
Zr1423     O1424   2.434       .  S
Zr1423     O1425   2.436       .  S
Zr1423     O1429   2.363       .  S
Zr1423     O1430   2.358       .  S
Zr1423     O1453   2.328       .  S
Zr1423     O1455   2.363       .  S
O1424      H1467   0.990       .  S
O1425      H1466   0.990       .  S
O1425      H1470   0.990       .  S
Zr1426     O1427   2.438       .  S
Zr1426     O1428   2.434       .  S
Zr1426     O1430   2.413       .  S
Zr1426     O1429   2.342       .  S
Zr1426     O1454   2.364       .  S
Zr1426     O1456   2.386       .  S
O1427      H1468   0.990       .  S
O1427      H1471   0.990       .  S
O1428      H1461   0.990       .  S
O1429     Zr1449   2.370       .  S
O1430     Zr1450   2.433       .  S
O1430      H1457   0.966       .  S
O1431     Zr1443   2.378   1_655  S
O1431      C1433   1.256       .  A
O1432     Zr1450   2.618   1_655  S
O1432      C1433   1.305       .  A
C1433      C1701   1.534       .  S
O1434     Zr1446   2.433       .  S
O1434      C1436   1.289       .  A
O1435     Zr1449   2.399       .  S
O1435      C1436   1.286       .  A
C1436      C2240   1.465       .  S
O1437     Zr1446   2.656       .  S
O1437      C1439   1.317       .  A
O1438     Zr1450   2.345       .  S
O1438      C1439   1.244       .  A
C1439      C1711   1.535   1_455  S
O1440     Zr1443   2.429       .  S
O1440      C1442   1.270       .  A
O1441     Zr1449   2.421       .  S
O1441      C1442   1.274       .  A
C1442      C1691   1.483       .  S
Zr1443     O1444   2.420   1_455  S
Zr1443     O1445   2.429   1_455  S
Zr1443     O1451   2.413       .  S
Zr1443     O1452   2.324       .  S
Zr1443     O1455   2.362       .  S
Zr1443     O1453   2.351       .  S
O1444      H1464   0.990   1_655  S
O1444      H1469   0.988       .  S
O1445      H1465   0.990       .  S
Zr1446     O1447   2.433       .  S
Zr1446     O1448   2.436       .  S
Zr1446     O1452   2.413       .  S
Zr1446     O1451   2.286       .  S
Zr1446     O1456   2.315       .  S
Zr1446     O1454   2.438       .  S
O1447      H1463   0.990       .  S
O1448      H1462   0.990       .  S
O1448      H1472   0.990       .  S
Zr1449     O1452   2.379       .  S
Zr1449     O1454   2.425       .  S
Zr1449     O1455   2.390       .  S
Zr1450     O1451   2.428       .  S
Zr1450     O1453   2.395       .  S
Zr1450     O1456   2.376       .  S
O1451      H1459   0.961       .  S
O1454      H1458   0.966       .  S
O1455      H1460   0.963       .  S
O1473     Zr1485   2.461       .  S
O1473      C1475   1.294       .  A
O1474     Zr1511   2.457       .  S
O1474      C1475   1.294       .  A
C1475      C1798   1.496       .  S
O1476     Zr1488   2.406       .  S
O1476      C1478   1.281       .  A
O1477     Zr1512   2.375       .  S
O1477      C1478   1.272       .  A
C1478      C1601   1.450       .  S
O1479     Zr1488   2.442       .  S
O1479      C1481   1.285       .  A
O1480     Zr1511   2.479       .  S
O1480      C1481   1.298       .  A
C1481      C1751   1.499       .  S
O1482     Zr1485   2.533       .  S
O1483      C1484   1.287       .  A
C1484      C1618   1.527       .  S
Zr1485     O1486   2.434       .  S
Zr1485     O1487   2.435       .  S
Zr1485     O1491   2.396       .  S
Zr1485     O1492   2.370       .  S
Zr1485     O1515   2.346       .  S
Zr1485     O1517   2.391       .  S
O1486      H1529   0.990       .  S
O1487      H1528   0.990       .  S
O1487      H1532   0.990       .  S
Zr1488     O1489   2.435       .  S
Zr1488     O1490   2.434       .  S
Zr1488     O1492   2.383       .  S
Zr1488     O1491   2.358       .  S
Zr1488     O1516   2.380       .  S
Zr1488     O1518   2.378       .  S
O1489      H1530   0.990       .  S
O1489      H1533   0.990       .  S
O1490      H1523   0.990       .  S
O1491     Zr1511   2.398       .  S
O1492     Zr1512   2.393       .  S
O1492      H1519   0.966       .  S
O1493      C1495   1.288       .  A
O1494      C1495   1.275       .  A
C1495      C1631   1.453       .  S
O1496     Zr1508   2.404       .  S
O1496      C1498   1.272       .  A
O1497     Zr1511   2.521       .  S
O1497      C1498   1.301       .  A
C1498      C1671   1.517       .  S
O1499     Zr1508   2.456       .  S
O1499      C1501   1.289       .  A
O1502     Zr1505   2.417       .  S
O1502      C1504   1.283       .  A
O1503     Zr1511   2.446       .  S
O1503      C1504   1.293       .  A
C1504      C2400   1.471   1_554  S
Zr1505     O2118   2.434   1_554  S
Zr1505     O1507   2.434       .  S
Zr1505     O1513   2.360       .  S
Zr1505     O1514   2.362       .  S
Zr1505     O1517   2.372       .  S
Zr1505     O1515   2.355       .  S
O1506     Zr2117   2.434       .  S
O1506      H1526   0.990       .  S
O1506      H1531   0.990       .  S
O1507      H1527   0.990       .  S
Zr1508     O2121   2.433   1_554  S
Zr1508     O1510   2.420       .  S
Zr1508     O1514   2.377       .  S
Zr1508     O1513   2.360       .  S
Zr1508     O1518   2.344       .  S
Zr1508     O1516   2.408       .  S
O1509     Zr2120   2.433       .  S
O1509      H1525   0.990       .  S
O1510      H1524   0.990       .  S
O1510      H1534   0.990       .  S
Zr1511     O1514   2.400       .  S
Zr1511     O1516   2.399       .  S
Zr1511     O1517   2.419       .  S
Zr1512     O1513   2.377       .  S
Zr1512     O1515   2.369       .  S
Zr1512     O1518   2.368       .  S
O1513      H1521   0.966       .  S
O1516      H1520   0.966       .  S
O1517      H1522   0.965       .  S
O1535     Zr1547   2.421       .  S
O1535      C1537   1.274       .  A
O1536     Zr1573   2.436       .  S
O1536      C1537   1.281       .  A
C1537      C1638   1.479       .  S
O1538     Zr1550   2.376       .  S
O1538      C1540   1.276       .  A
O1539     Zr1574   2.478       .  S
O1539      C1540   1.294       .  A
C1540      C1728   1.471       .  S
O1541     Zr1550   2.373       .  S
O1541      C1543   1.274       .  A
O1542     Zr1573   2.499       .  S
O1542      C1543   1.301       .  A
C1543      C1808   1.484       .  S
O1544     Zr1547   2.433       .  S
O1544      C1546   1.287       .  A
O1545     Zr1574   2.331       .  S
O1545      C1546   1.272       .  A
C1546      C1598   1.431       .  S
Zr1547     O1548   2.433       .  S
Zr1547     O1549   2.441       .  S
Zr1547     O1553   2.363       .  S
Zr1547     O1554   2.348       .  S
Zr1547     O1577   2.346       .  S
Zr1547     O1579   2.377       .  S
O1548      H1591   0.990       .  S
O1549      H1590   0.988       .  S
O1549      H1594   0.990       .  S
Zr1550     O1551   2.438       .  S
Zr1550     O1552   2.433       .  S
Zr1550     O1554   2.356       .  S
Zr1550     O1553   2.341       .  S
Zr1550     O1578   2.353       .  S
Zr1550     O1580   2.353       .  S
O1551      H1592   0.990       .  S
O1551      H1595   0.989       .  S
O1552      H1585   0.990       .  S
O1553     Zr1573   2.391       .  S
O1554     Zr1574   2.367       .  S
O1554      H1581   0.965       .  S
O1555      C1557   1.268       .  A
O1556      C1557   1.290       .  A
C1557      C1651   1.497       .  S
O1558     Zr1570   2.458       .  S
O1558      C1560   1.293       .  A
O1559     Zr1573   2.422       .  S
O1559      C1560   1.292       .  A
C1560      C1741   1.466       .  S
O1561     Zr1570   2.573   1_545  S
O1561      C1563   1.294       .  A
O1562     Zr1574   2.371       .  S
O1562      C1563   1.254   1_565  A
O1564     Zr1567   2.386       .  S
O1564      C1566   1.275       .  A
O1565     Zr1573   2.537       .  S
O1565      C1566   1.308       .  A
C1566      C1611   1.499       .  S
Zr1567     O1575   2.372       .  S
Zr1567     O1576   2.364       .  S
Zr1567     O1579   2.360       .  S
Zr1567     O1577   2.377       .  S
O1568      H1588   0.985       .  S
O1568      H1593   0.989       .  S
O1569      H1589   0.990       .  S
Zr1570     O1571   2.435       .  S
Zr1570     O1572   2.435       .  S
Zr1570     O1576   2.422       .  S
Zr1570     O1575   2.349       .  S
Zr1570     O1580   2.381       .  S
Zr1570     O1578   2.409       .  S
O1571      H1587   0.990   1_565  S
O1572      H1586   0.990       .  S
O1572      H1596   0.990       .  S
Zr1573     O1576   2.406       .  S
Zr1573     O1578   2.421       .  S
Zr1573     O1579   2.400       .  S
Zr1574     O1575   2.425       .  S
Zr1574     O1577   2.402       .  S
Zr1574     O1580   2.376       .  S
O1575      H1583   0.959   1_565  S
O1578      H1582   0.965       .  S
O1579      H1584   0.964       .  S
C1597      C1598   1.395       .  A
C1597      C1602   1.382       .  A
C1597      F1604   1.359       .  S
C1599      C1600   1.378       .  A
C1599      F1606   1.360       .  S
C1600      C1601   1.405       .  A
C1600      F1605   1.359       .  S
C1602      F1603   1.358       .  S
C1607      F1614   1.358       .  S
C1608      C1609   1.407       .  A
C1609      C1610   1.412       .  A
C1609      F1616   1.358       .  S
C1610      C2223   1.411       .  A
C1610      F1615   1.350   1_554  S
C1611      C2222   1.411       .  A
C1611      C2224   1.413       .  A
C1612      C2223   1.413       .  A
C1617      C1618   1.415       .  A
C1617      C1622   1.401       .  A
C1617      F1624   1.353       .  S
C1618      C1619   1.417       .  A
C1619      C1620   1.429       .  A
C1619      F1626   1.357       .  S
C1620      C1621   1.418       .  A
C1620      F1625   1.357       .  S
C1621      C1622   1.408       .  A
C1622      F1623   1.359       .  S
C1627      C1628   1.406       .  A
C1627      C1632   1.385       .  A
C1627      F1634   1.359       .  S
C1628      C2048   1.465   1_554  S
C1628      C2241   1.407       .  A
C1629      C2240   1.407       .  A
C1629      C2242   1.387       .  A
C1629      F1636   1.358       .  S
C1630      C2241   1.387       .  A
C1630      C1631   1.403       .  A
C1630      F2247   1.359       .  S
C1631      C1632   1.405       .  A
C1632      F1633   1.359       .  S
F1635      C2242   1.359       .  S
C1637      C1638   1.406       .  A
C1637      C1642   1.392       .  A
C1637      F1644   1.357       .  S
C1638      C1639   1.400       .  A
C1639      C1640   1.400       .  A
C1639      F1646   1.355       .  S
C1640      C1641   1.417       .  A
C1640      F1645   1.358       .  S
C1641      C1642   1.407       .  A
C1642      F1643   1.358       .  S
C1647      C1648   1.403       .  A
C1647      C1652   1.397       .  A
C1647      F1654   1.359       .  S
C1648      C1986   1.474       .  S
C1648      C1649   1.403       .  A
C1649      C1650   1.407       .  A
C1649      F1656   1.357       .  S
C1650      C1651   1.411       .  A
C1650      F1655   1.357       .  S
C1651      C1652   1.402       .  A
C1652      F1653   1.337       .  S
C1657      C1658   1.423       .  A
C1657      C1662   1.430       .  A
C1657      F1664   1.357       .  S
C1658      C1659   1.407       .  A
C1659      C1660   1.394       .  A
C1659      F1666   1.358       .  S
C1660      C1661   1.416       .  A
C1660      F1665   1.352       .  S
C1661      C1662   1.412       .  A
C1662      F1663   1.358       .  S
C1667      C1668   1.426   1_554  A
C1667      C1672   1.409       .  A
C1667      F1674   1.358       .  S
C1668      C1669   1.398       .  A
C1669      C1670   1.412       .  A
C1669      F1676   1.353       .  S
C1670      C1671   1.427   1_556  A
C1670      F1675   1.356       .  S
C1671      C1672   1.404       .  A
C1672      F1673   1.357       .  S
C1677      C1678   1.404       .  A
C1677      C1682   1.390       .  A
C1677      F1684   1.358       .  S
C1678      C1679   1.413   1_655  A
C1679      C1680   1.385       .  A
C1679      F1686   1.359       .  S
C1680      C1681   1.393   1_455  A
C1680      F1685   1.358       .  S
C1681      C1682   1.403       .  A
C1682      F1683   1.358       .  S
C1687      C2300   1.403       .  A
C1687      C1692   1.398       .  A
C1687      F1694   1.358       .  S
C1688      C1963   1.456   1_455  S
C1688      C2299   1.403       .  A
C1688      C1689   1.398   1_455  A
C1689      C1690   1.394   1_655  A
C1689      F1696   1.358       .  S
C1690      C1691   1.408       .  A
C1690      F1695   1.356   1_455  S
C1691      C2304   1.411       .  A
C1692      C2303   1.411       .  A
C1692      F1693   1.357       .  S
C1697      C1698   1.415       .  A
C1697      C1702   1.423       .  A
C1697      F2316   1.357       .  S
C1698      C1910   1.536       .  S
C1698      C1699   1.425       .  A
C1699      C1700   1.419       .  A
C1699      F1706   1.354       .  S
C1700      C1701   1.411       .  A
C1700      F1705   1.357       .  S
C1701      C1702   1.426       .  A
C1702      F1703   1.358       .  S
F1704      C2309   1.357       .  S
C1707      C1708   1.427       .  A
C1707      C1712   1.441       .  A
C1707      F1714   1.356       .  S
C1708      C1709   1.401       .  A
C1709      C1710   1.388       .  A
C1709      F1716   1.360       .  S
C1710      C1711   1.419       .  A
C1710      F1715   1.340       .  S
C1711      C1712   1.419       .  A
C1712      F1713   1.356       .  S
C1717      C1718   1.405       .  A
C1717      C1722   1.414       .  A
C1717      F1724   1.357       .  S
C1718      C1719   1.427       .  A
C1719      C1720   1.415       .  A
C1719      F1726   1.358       .  S
C1720      C1721   1.406       .  A
C1720      F1725   1.354       .  S
C1721      C1722   1.427       .  A
C1722      F1723   1.358       .  S
C1727      C1728   1.403       .  A
C1727      C1732   1.400       .  A
C1727      F1734   1.356       .  S
C1728      C1729   1.414       .  A
C1729      C1730   1.407       .  A
C1729      F1736   1.358       .  S
C1730      C1731   1.403       .  A
C1730      F1735   1.358       .  S
C1731      C1732   1.410       .  A
C1732      F1733   1.358       .  S
C1737      C1738   1.403       .  A
C1737      C1742   1.389       .  A
C1737      F1744   1.359       .  S
C1738      C2351   1.409       .  A
C1739      C2350   1.409       .  A
C1739      C1740   1.403       .  A
C1739      F1746   1.358       .  S
C1740      C1741   1.404       .  A
C1740      F1745   1.357       .  S
C1741      C2354   1.405       .  A
C1742      C2353   1.405       .  A
C1742      F1743   1.359       .  S
C1747      C1748   1.405       .  A
C1747      C1752   1.416       .  A
C1747      F1754   1.355       .  S
C1748      C1749   1.416       .  A
C1749      C1750   1.405       .  A
C1749      F1756   1.357       .  S
C1750      C1751   1.400       .  A
C1750      F1755   1.355       .  S
C1751      C1752   1.409       .  A
C1752      F1753   1.351       .  S
C1757      C1758   1.409       .  A
C1757      C1762   1.410       .  A
C1757      F1764   1.357   1_455  S
C1758      C1759   1.422       .  A
C1759      C1760   1.404       .  A
C1759      F1766   1.355       .  S
C1760      C1761   1.403       .  A
C1760      F1765   1.358       .  S
C1761      C1762   1.418       .  A
C1762      F1763   1.358       .  S
C1767      C1768   1.412       .  A
C1767      C1772   1.403       .  A
C1767      F2386   1.358       .  S
C1768      C1769   1.397       .  A
C1769      C1770   1.389       .  A
C1769      F1776   1.357       .  S
C1770      C1771   1.411       .  A
C1770      F1775   1.360       .  S
C1771      C1772   1.400       .  A
C1772      F2385   1.357   1_455  S
F1773      C2384   1.357   1_655  S
F1774      C2379   1.358       .  S
C1777      C1778   1.405       .  A
C1777      C1782   1.403       .  A
C1777      F1784   1.353       .  S
C1778      C1779   1.413       .  A
C1779      C1780   1.390       .  A
C1779      F1786   1.359       .  S
C1780      C1781   1.403       .  A
C1780      F1785   1.358       .  S
C1781      C1782   1.410       .  A
C1782      F1783   1.358       .  S
C1787      C1788   1.409       .  A
C1787      C1792   1.404       .  A
C1787      F1794   1.358       .  S
C1788      C2116   1.471       .  S
C1788      C2401   1.398       .  A
C1789      C2400   1.398   1_554  A
C1789      C2402   1.392   1_554  A
C1789      F1796   1.359       .  S
C1790      C2401   1.392       .  A
C1790      C1791   1.418       .  A
C1790      F1795   1.358       .  S
C1791      C1792   1.406       .  A
C1792      F1793   1.357       .  S
C1797      C1798   1.411       .  A
C1797      C1802   1.411       .  A
C1797      F1804   1.355       .  S
C1798      C1799   1.409       .  A
C1799      C1800   1.399       .  A
C1799      F1806   1.358       .  S
C1800      C1801   1.406       .  A
C1800      F1805   1.358       .  S
C1801      C1802   1.409       .  A
C1802      F1803   1.358       .  S
C1807      C1808   1.396       .  A
C1807      C1812   1.400       .  A
C1807      F1814   1.358       .  S
C1808      C1809   1.421       .  A
C1809      C1810   1.396       .  A
C1809      F1816   1.353       .  S
C1810      C1811   1.391       .  A
C1810      F1815   1.358       .  S
C1811      C1812   1.421       .  A
C1812      F1813   1.355       .  S
C1817      C1818   1.391       .  A
C1817      C1822   1.387       .  A
C1817      F1824   1.358       .  S
C1818      C1819   1.402       .  A
C1819      C1820   1.375       .  A
C1819      F1826   1.355       .  S
C1820      C1821   1.400       .  A
C1820      F1825   1.359       .  S
C1821      C1907   1.455       .  S
C1821      C1822   1.417       .  A
C1822      F2435   1.358       .  S
F1823      C2434   1.358       .  S
C1827      C1828   1.416       .  A
C1827      C1832   1.412       .  A
C1827      F1834   1.358       .  S
C1828      C1829   1.413       .  A
C1829      C1830   1.421       .  A
C1829      F1836   1.357       .  S
C1830      C1831   1.421       .  A
C1830      F1835   1.357       .  S
C1831      C1859   1.531       .  S
C1831      C1832   1.415       .  A
C1832      F1833   1.358       .  S
O1837     Zr1849   2.435       .  S
O1837      C1839   1.281       .  A
O1838     Zr1875   2.467       .  S
O1838      C1839   1.295       .  A
C1839      C2423   1.479       .  S
O1840     Zr1852   2.503       .  S
O1840      C1842   1.295       .  A
O1841     Zr1876   2.395       .  S
O1841      C1842   1.271       .  A
C1842      C2403   1.488       .  S
O1843     Zr1852   2.430       .  S
O1843      C1845   1.287       .  A
O1844     Zr1875   2.482       .  S
O1844      C1845   1.298       .  A
C1845      C2413   1.482       .  S
O1846     Zr1849   2.401       .  S
O1846      C1848   1.270       .  A
O1847     Zr1876   2.418       .  S
O1847      C1848   1.282       .  A
C1848      C2430   1.425       .  S
Zr1849     O1850   2.434       .  S
Zr1849     O1851   2.451       .  S
Zr1849     O1855   2.336       .  S
Zr1849     O1856   2.357       .  S
Zr1849     O1879   2.386       .  S
Zr1849     O1881   2.366       .  S
O1850      H1893   0.990       .  S
O1851      H1892   0.989       .  S
O1851      H1896   0.990       .  S
Zr1852     O1853   2.438       .  S
Zr1852     O1854   2.435       .  S
Zr1852     O1856   2.363       .  S
Zr1852     O1855   2.393       .  S
Zr1852     O1880   2.384       .  S
Zr1852     O1882   2.345       .  S
O1853      H1894   0.990       .  S
O1853      H1897   0.990       .  S
O1854      H1887   0.990       .  S
O1855     Zr1875   2.394       .  S
O1856     Zr1876   2.413       .  S
O1856      H1883   0.958       .  S
O1857     Zr1869   2.495       .  S
O1857      C1859   1.298   1_556  A
O1858     Zr1876   2.463   1_554  S
O1858      C1859   1.294       .  A
O1860     Zr1872   2.438       .  S
O1860      C1862   1.285       .  A
O1861     Zr1875   2.474       .  S
O1861      C1862   1.298       .  A
C1862      C2373   1.503       .  S
O1863     Zr1872   2.422       .  S
O1863      C1865   1.270       .  A
O1864     Zr1876   2.440       .  S
O1864      C1865   1.281       .  A
C1865      C2380   1.467       .  S
O1866     Zr1869   2.427       .  S
O1866      C1868   1.279       .  A
O1867     Zr1875   2.449       .  S
O1867      C1868   1.292       .  A
C1868      C2393   1.474       .  S
Zr1869     O1870   2.438       .  S
Zr1869     O1871   2.435       .  S
Zr1869     O1877   2.344       .  S
Zr1869     O1878   2.401       .  S
Zr1869     O1881   2.345       .  S
Zr1869     O1879   2.342       .  S
O1870      H1890   0.989       .  S
O1870      H1895   0.990       .  S
O1871      H1891   0.990       .  S
Zr1872     O1873   2.427       .  S
Zr1872     O1874   2.434       .  S
Zr1872     O1878   2.345       .  S
Zr1872     O1877   2.413       .  S
Zr1872     O1882   2.373       .  S
Zr1872     O1880   2.372       .  S
O1873      H1889   0.990       .  S
O1874      H1888   0.988       .  S
O1874      H1898   0.989       .  S
Zr1875     O1878   2.392       .  S
Zr1875     O1880   2.403       .  S
Zr1875     O1881   2.403       .  S
Zr1876     O1877   2.408       .  S
Zr1876     O1879   2.380       .  S
Zr1876     O1882   2.409       .  S
O1877      H1885   0.960       .  S
O1880      H1884   0.965       .  S
O1881      H1886   0.954       .  S
O1899     Zr1911   2.463       .  S
O1899      C1901   1.286       .  A
O1900     Zr1937   2.376       .  S
O1900      C1901   1.276       .  A
C1901      C2350   1.468       .  S
O1902     Zr1914   2.576       .  S
O1902      C1904   1.315       .  A
O1903     Zr1938   2.362       .  S
O1903      C1904   1.278       .  A
C1904      C2330   1.520       .  S
O1905     Zr1914   2.382       .  S
O1905      C1907   1.278       .  A
O1906     Zr1937   2.410       .  S
O1906      C1907   1.287       .  A
O1908     Zr1911   2.375       .  S
O1908      C1910   1.259       .  A
O1909     Zr1938   2.573       .  S
O1909      C1910   1.303       .  A
Zr1911     O1913   2.438       .  S
Zr1911     O1917   2.350       .  S
Zr1911     O1918   2.414       .  S
Zr1911     O1941   2.414       .  S
Zr1911     O1943   2.324       .  S
O1912      H1955   0.990       .  S
O1913      H1954   0.990       .  S
O1913      H1958   0.991       .  S
Zr1914     O1916   2.436       .  S
Zr1914     O1918   2.290       .  S
Zr1914     O1917   2.434       .  S
Zr1914     O1942   2.388       .  S
Zr1914     O1944   2.310       .  S
O1915      H1956   0.990   1_554  S
O1915      H1959   0.990       .  S
O1916      H1949   0.990       .  S
O1917     Zr1937   2.383       .  S
O1918     Zr1938   2.406       .  S
O1918      H1945   0.960       .  S
O1919     Zr1931   2.502       .  S
O1919      C1921   1.297       .  A
O1920     Zr1938   2.448       .  S
O1920      C1921   1.295       .  A
C1921      C2320   1.531       .  S
O1922     Zr1934   2.545       .  S
O1922      C1924   1.305       .  A
O1923     Zr1937   2.402       .  S
O1923      C1924   1.281       .  A
C1924      C2440   1.522       .  S
O1925     Zr1934   2.411       .  S
O1925      C1927   1.275       .  A
O1926     Zr1938   2.549       .  S
O1926      C1927   1.305       .  A
C1927      C2360   1.509       .  S
O1928     Zr1931   2.440       .  S
O1928      C1930   1.290       .  A
O1929     Zr1937   2.463       .  S
O1929      C1930   1.294       .  A
C1930      C2343   1.485       .  S
Zr1931     O1932   2.433       .  S
Zr1931     O1933   2.434       .  S
Zr1931     O1939   2.359       .  S
Zr1931     O1940   2.412       .  S
Zr1931     O1943   2.384       .  S
Zr1931     O1941   2.376       .  S
O1932      H1952   0.990       .  S
O1932      H1957   0.990       .  S
O1933      H1953   0.990       .  S
Zr1934     O1935   2.434       .  S
Zr1934     O1936   2.437       .  S
Zr1934     O1940   2.359       .  S
Zr1934     O1939   2.432       .  S
Zr1934     O1944   2.404       .  S
Zr1934     O1942   2.314       .  S
O1935      H1951   0.990       .  S
O1936      H1950   0.988       .  S
O1936      H1960   0.988       .  S
Zr1937     O1940   2.380       .  S
Zr1937     O1942   2.379       .  S
Zr1937     O1943   2.368       .  S
Zr1938     O1939   2.418       .  S
Zr1938     O1941   2.398       .  S
Zr1938     O1944   2.386       .  S
O1939      H1947   0.966       .  S
O1942      H1946   0.963       .  S
O1943      H1948   0.963       .  S
O1961     Zr1973   2.411       .  S
O1961      C1963   1.269       .  A
O1964     Zr1976   2.445   1_455  S
O1964      C1966   1.286   1_455  A
O1965     Zr2000   2.494       .  S
O1965      C1966   1.299       .  A
C1966      C2370   1.512   1_655  S
O1967     Zr1976   2.389       .  S
O1968      C1969   1.276       .  A
C1969      C2383   1.465   1_655  S
O1970     Zr1973   2.388       .  S
O1970      C1972   1.278       .  A
O1971     Zr2000   2.402       .  S
O1971      C1972   1.285       .  A
C1972      C2290   1.459       .  S
Zr1973     O1974   2.433   1_655  S
Zr1973     O1975   2.433       .  S
Zr1973     O1979   2.323       .  S
Zr1973     O1980   2.352       .  S
Zr1973     O2003   2.347       .  S
Zr1973     O2005   2.353       .  S
O1974      H2017   0.990       .  S
O1975      H2016   0.990       .  S
O1975      H2020   0.990       .  S
Zr1976     O1977   2.430   1_655  S
Zr1976     O1978   2.437       .  S
Zr1976     O1980   2.377       .  S
Zr1976     O1979   2.367       .  S
Zr1976     O2004   2.396       .  S
Zr1976     O2006   2.321       .  S
O1977      H2018   0.989       .  S
O1977      H2021   0.990       .  S
O1978      H2011   0.990       .  S
O1979     Zr1999   2.425       .  S
O1980     Zr2000   2.394       .  S
O1980      H2007   0.964       .  S
O1981     Zr1993   2.366       .  S
O1981      C1983   1.250       .  A
O1982     Zr2000   2.561       .  S
O1982      C1983   1.299       .  A
C1983      C2333   1.520       .  S
O1984     Zr1996   2.521       .  S
O1984      C1986   1.304       .  A
O1987     Zr1996   2.487       .  S
O1987      C1989   1.300       .  A
O1988     Zr2000   2.476       .  S
O1988      C1989   1.299       .  A
C1989      C2270   1.519       .  S
O1990     Zr1993   2.360       .  S
O1990      C1992   1.256       .  A
O1991     Zr1999   2.566       .  S
O1991      C1992   1.306       .  A
C1992      C2280   1.512       .  S
Zr1993     O1994   2.424       .  S
Zr1993     O1995   2.423       .  S
Zr1993     O2001   2.400       .  S
Zr1993     O2002   2.341       .  S
Zr1993     O2005   2.374       .  S
Zr1993     O2003   2.367       .  S
O1994      H2014   0.989       .  S
O1994      H2019   0.989       .  S
O1995      H2015   0.989       .  S
Zr1996     O1997   2.435       .  S
Zr1996     O1998   2.436       .  S
Zr1996     O2002   2.374       .  S
Zr1996     O2001   2.381       .  S
Zr1996     O2006   2.384       .  S
Zr1996     O2004   2.362       .  S
O1997      H2013   0.990       .  S
O1998      H2012   0.990       .  S
O1998      H2022   0.990       .  S
Zr1999     O2002   2.383       .  S
Zr1999     O2004   2.450       .  S
Zr1999     O2005   2.377       .  S
Zr2000     O2001   2.431       .  S
Zr2000     O2003   2.383       .  S
Zr2000     O2006   2.400       .  S
O2001      H2009   0.966       .  S
O2004      H2008   0.966       .  S
O2005      H2010   0.964       .  S
O2023     Zr2035   2.397       .  S
O2023      C2025   1.279       .  A
O2024     Zr2061   2.459       .  S
O2024      C2025   1.292       .  A
C2025      C2390   1.484       .  S
O2026     Zr2038   2.393       .  S
O2026      C2028   1.272       .  A
O2027     Zr2062   2.558       .  S
O2027      C2028   1.306       .  A
C2028      C2233   1.514       .  S
O2029     Zr2038   2.470       .  S
O2029      C2031   1.292       .  A
O2030     Zr2061   2.370       .  S
O2030      C2031   1.273       .  A
C2031      C2253   1.484       .  S
O2032     Zr2035   2.419       .  S
O2032      C2034   1.270   1_455  A
O2033     Zr2062   2.416   1_655  S
O2033      C2034   1.271       .  A
C2034      C2293   1.438       .  S
Zr2035     O2036   2.434       .  S
Zr2035     O2037   2.436       .  S
Zr2035     O2041   2.363       .  S
Zr2035     O2042   2.358       .  S
Zr2035     O2065   2.328       .  S
Zr2035     O2067   2.363       .  S
O2036      H2079   0.990       .  S
O2037      H2078   0.990       .  S
O2037      H2082   0.990       .  S
Zr2038     O2039   2.438       .  S
Zr2038     O2040   2.434       .  S
Zr2038     O2042   2.413       .  S
Zr2038     O2041   2.342       .  S
Zr2038     O2066   2.364       .  S
Zr2038     O2068   2.386       .  S
O2039      H2080   0.990       .  S
O2039      H2083   0.990       .  S
O2040      H2073   0.990       .  S
O2041     Zr2061   2.370       .  S
O2042     Zr2062   2.433       .  S
O2042      H2069   0.966       .  S
O2043     Zr2055   2.378   1_655  S
O2043      C2045   1.256       .  A
O2044     Zr2062   2.618   1_655  S
O2044      C2045   1.305       .  A
C2045      C2313   1.534       .  S
O2046     Zr2058   2.433       .  S
O2046      C2048   1.289       .  A
O2047     Zr2061   2.399       .  S
O2047      C2048   1.286       .  A
O2049     Zr2058   2.656       .  S
O2049      C2051   1.317       .  A
O2050     Zr2062   2.345       .  S
O2050      C2051   1.244       .  A
C2051      C2323   1.535   1_455  S
O2052     Zr2055   2.429       .  S
O2052      C2054   1.270       .  A
O2053     Zr2061   2.421       .  S
O2053      C2054   1.274       .  A
C2054      C2303   1.483       .  S
Zr2055     O2056   2.420   1_455  S
Zr2055     O2057   2.429   1_455  S
Zr2055     O2063   2.413       .  S
Zr2055     O2064   2.324       .  S
Zr2055     O2067   2.362       .  S
Zr2055     O2065   2.351       .  S
O2056      H2076   0.990   1_656  S
O2056      H2081   0.988   1_556  S
O2057      H2077   0.990       .  S
Zr2058     O2059   2.433       .  S
Zr2058     O2060   2.436       .  S
Zr2058     O2064   2.413       .  S
Zr2058     O2063   2.286       .  S
Zr2058     O2068   2.315       .  S
Zr2058     O2066   2.438       .  S
O2059      H2075   0.990       .  S
O2060      H2074   0.990       .  S
O2060      H2084   0.990       .  S
Zr2061     O2064   2.379       .  S
Zr2061     O2066   2.425       .  S
Zr2061     O2067   2.390       .  S
Zr2062     O2063   2.428       .  S
Zr2062     O2065   2.395       .  S
Zr2062     O2068   2.376       .  S
O2063      H2071   0.961       .  S
O2066      H2070   0.966       .  S
O2067      H2072   0.963       .  S
O2085     Zr2097   2.461       .  S
O2085      C2087   1.294       .  A
O2086     Zr2123   2.457       .  S
O2086      C2087   1.294       .  A
C2087      C2410   1.496       .  S
O2088     Zr2100   2.406       .  S
O2088      C2090   1.281       .  A
O2089     Zr2124   2.375       .  S
O2089      C2090   1.272       .  A
C2090      C2213   1.450       .  S
O2091     Zr2100   2.442       .  S
O2091      C2093   1.285       .  A
O2092     Zr2123   2.479       .  S
O2092      C2093   1.298       .  A
C2093      C2363   1.499       .  S
O2094     Zr2097   2.533       .  S
O2095      C2096   1.287       .  A
C2096      C2230   1.527       .  S
Zr2097     O2098   2.434       .  S
Zr2097     O2099   2.435       .  S
Zr2097     O2103   2.396       .  S
Zr2097     O2104   2.370       .  S
Zr2097     O2127   2.346       .  S
Zr2097     O2129   2.391       .  S
O2098      H2141   0.990       .  S
O2099      H2140   0.990       .  S
O2099      H2144   0.990       .  S
Zr2100     O2101   2.435       .  S
Zr2100     O2102   2.434       .  S
Zr2100     O2104   2.383       .  S
Zr2100     O2103   2.358       .  S
Zr2100     O2128   2.380       .  S
Zr2100     O2130   2.378       .  S
O2101      H2142   0.990       .  S
O2101      H2145   0.990       .  S
O2102      H2135   0.990       .  S
O2103     Zr2123   2.398       .  S
O2104     Zr2124   2.393       .  S
O2104      H2131   0.966       .  S
O2105      C2107   1.288       .  A
O2106      C2107   1.275       .  A
C2107      C2243   1.453       .  S
O2108     Zr2120   2.404       .  S
O2108      C2110   1.272       .  A
O2109     Zr2123   2.521       .  S
O2109      C2110   1.301       .  A
C2110      C2283   1.517       .  S
O2111     Zr2120   2.456       .  S
O2111      C2113   1.289       .  A
O2114     Zr2117   2.417       .  S
O2114      C2116   1.283       .  A
O2115     Zr2123   2.446       .  S
O2115      C2116   1.293       .  A
Zr2117     O2119   2.434       .  S
Zr2117     O2125   2.360       .  S
Zr2117     O2126   2.362       .  S
Zr2117     O2129   2.372       .  S
Zr2117     O2127   2.355       .  S
O2118      H2138   0.990       .  S
O2118      H2143   0.990       .  S
O2119      H2139   0.990       .  S
Zr2120     O2122   2.420       .  S
Zr2120     O2126   2.377       .  S
Zr2120     O2125   2.360       .  S
Zr2120     O2130   2.344       .  S
Zr2120     O2128   2.408       .  S
O2121      H2137   0.990       .  S
O2122      H2136   0.990       .  S
O2122      H2146   0.990       .  S
Zr2123     O2126   2.400       .  S
Zr2123     O2128   2.399       .  S
Zr2123     O2129   2.419       .  S
Zr2124     O2125   2.377       .  S
Zr2124     O2127   2.369       .  S
Zr2124     O2130   2.368       .  S
O2125      H2133   0.966       .  S
O2128      H2132   0.966       .  S
O2129      H2134   0.965       .  S
O2147     Zr2159   2.421       .  S
O2147      C2149   1.274       .  A
O2148     Zr2185   2.436       .  S
O2148      C2149   1.281       .  A
C2149      C2250   1.479       .  S
O2150     Zr2162   2.376       .  S
O2150      C2152   1.276       .  A
O2151     Zr2186   2.478       .  S
O2151      C2152   1.294       .  A
C2152      C2340   1.471       .  S
O2153     Zr2162   2.373       .  S
O2153      C2155   1.274       .  A
O2154     Zr2185   2.499       .  S
O2154      C2155   1.301       .  A
C2155      C2420   1.484       .  S
O2156     Zr2159   2.433       .  S
O2156      C2158   1.287       .  A
O2157     Zr2186   2.331       .  S
O2157      C2158   1.272       .  A
C2158      C2210   1.431       .  S
Zr2159     O2160   2.433       .  S
Zr2159     O2161   2.441       .  S
Zr2159     O2165   2.363       .  S
Zr2159     O2166   2.348       .  S
Zr2159     O2189   2.346       .  S
Zr2159     O2191   2.377       .  S
O2160      H2203   0.990       .  S
O2161      H2202   0.988       .  S
O2161      H2206   0.990       .  S
Zr2162     O2163   2.438       .  S
Zr2162     O2164   2.433       .  S
Zr2162     O2166   2.356       .  S
Zr2162     O2165   2.341       .  S
Zr2162     O2190   2.353       .  S
Zr2162     O2192   2.353       .  S
O2163      H2204   0.990       .  S
O2163      H2207   0.989       .  S
O2164      H2197   0.990       .  S
O2165     Zr2185   2.391       .  S
O2166     Zr2186   2.367       .  S
O2166      H2193   0.965       .  S
O2167      C2169   1.268       .  A
O2168      C2169   1.290       .  A
C2169      C2263   1.497       .  S
O2170     Zr2182   2.458       .  S
O2170      C2172   1.293       .  A
O2171     Zr2185   2.422       .  S
O2171      C2172   1.292       .  A
C2172      C2353   1.466       .  S
O2173     Zr2182   2.573   1_545  S
O2173      C2175   1.294       .  A
O2174     Zr2186   2.371       .  S
O2174      C2175   1.254   1_565  A
O2176     Zr2179   2.386       .  S
O2176      C2178   1.275       .  A
O2177     Zr2185   2.537       .  S
O2177      C2178   1.308       .  A
C2178      C2223   1.499   1_556  S
Zr2179     O2187   2.372       .  S
Zr2179     O2188   2.364       .  S
Zr2179     O2191   2.360       .  S
Zr2179     O2189   2.377       .  S
O2180      H2200   0.985       .  S
O2180      H2205   0.989       .  S
O2181      H2201   0.990       .  S
Zr2182     O2183   2.435       .  S
Zr2182     O2184   2.435       .  S
Zr2182     O2188   2.422       .  S
Zr2182     O2187   2.349       .  S
Zr2182     O2192   2.381       .  S
Zr2182     O2190   2.409       .  S
O2183      H2199   0.990   1_565  S
O2184      H2198   0.990       .  S
O2184      H2208   0.990       .  S
Zr2185     O2188   2.406       .  S
Zr2185     O2190   2.421       .  S
Zr2185     O2191   2.400       .  S
Zr2186     O2187   2.425       .  S
Zr2186     O2189   2.402       .  S
Zr2186     O2192   2.376       .  S
O2187      H2195   0.959   1_565  S
O2190      H2194   0.965       .  S
O2191      H2196   0.964       .  S
C2209      C2210   1.395       .  A
C2209      C2214   1.382       .  A
C2209      F2216   1.359       .  S
C2211      C2212   1.378       .  A
C2211      F2218   1.360       .  S
C2212      C2213   1.405       .  A
C2212      F2217   1.359       .  S
C2214      F2215   1.358       .  S
C2219      F2226   1.358       .  S
C2220      C2221   1.407       .  A
C2221      C2222   1.412       .  A
C2221      F2228   1.358       .  S
C2222      F2227   1.350       .  S
C2229      C2230   1.415       .  A
C2229      C2234   1.401       .  A
C2229      F2236   1.353       .  S
C2230      C2231   1.417       .  A
C2231      C2232   1.429       .  A
C2231      F2238   1.357       .  S
C2232      C2233   1.418       .  A
C2232      F2237   1.357       .  S
C2233      C2234   1.408       .  A
C2234      F2235   1.359       .  S
C2239      C2240   1.406       .  A
C2239      C2244   1.385       .  A
C2239      F2246   1.359       .  S
C2241      F2248   1.358       .  S
C2242      C2243   1.403       .  A
C2243      C2244   1.405       .  A
C2244      F2245   1.359       .  S
C2249      C2250   1.406       .  A
C2249      C2254   1.392       .  A
C2249      F2256   1.357       .  S
C2250      C2251   1.400       .  A
C2251      C2252   1.400       .  A
C2251      F2258   1.355       .  S
C2252      C2253   1.417       .  A
C2252      F2257   1.358       .  S
C2253      C2254   1.407       .  A
C2254      F2255   1.358       .  S
C2259      C2260   1.403       .  A
C2259      C2264   1.397       .  A
C2259      F2266   1.359       .  S
C2260      C2261   1.403       .  A
C2261      C2262   1.407       .  A
C2261      F2268   1.357       .  S
C2262      C2263   1.411       .  A
C2262      F2267   1.357       .  S
C2263      C2264   1.402       .  A
C2264      F2265   1.337       .  S
C2269      C2270   1.423       .  A
C2269      C2274   1.430       .  A
C2269      F2276   1.357       .  S
C2270      C2271   1.407       .  A
C2271      C2272   1.394       .  A
C2271      F2278   1.358       .  S
C2272      C2273   1.416       .  A
C2272      F2277   1.352       .  S
C2273      C2274   1.412       .  A
C2274      F2275   1.358       .  S
C2279      C2280   1.426       .  A
C2279      C2284   1.409       .  A
C2279      F2286   1.358       .  S
C2280      C2281   1.398       .  A
C2281      C2282   1.412       .  A
C2281      F2288   1.353       .  S
C2282      C2283   1.427       .  A
C2282      F2287   1.356       .  S
C2283      C2284   1.404       .  A
C2284      F2285   1.357       .  S
C2289      C2290   1.404       .  A
C2289      C2294   1.390       .  A
C2289      F2296   1.358       .  S
C2290      C2291   1.413   1_655  A
C2291      C2292   1.385       .  A
C2291      F2298   1.359       .  S
C2292      C2293   1.393   1_455  A
C2292      F2297   1.358       .  S
C2293      C2294   1.403       .  A
C2294      F2295   1.358       .  S
C2299      C2304   1.398       .  A
C2299      F2306   1.358       .  S
C2300      C2301   1.398   1_455  A
C2301      C2302   1.394   1_656  A
C2301      F2308   1.358   1_556  S
C2302      C2303   1.408   1_554  A
C2302      F2307   1.356   1_455  S
C2304      F2305   1.357       .  S
C2309      C2310   1.415       .  A
C2309      C2314   1.423   1_554  A
C2310      C2311   1.425       .  A
C2311      C2312   1.419   1_554  A
C2311      F2318   1.354       .  S
C2312      C2313   1.411       .  A
C2312      F2317   1.357       .  S
C2313      C2314   1.426       .  A
C2314      F2315   1.358       .  S
C2319      C2320   1.427       .  A
C2319      C2324   1.441       .  A
C2319      F2326   1.356       .  S
C2320      C2321   1.401       .  A
C2321      C2322   1.388       .  A
C2321      F2328   1.360       .  S
C2322      C2323   1.419       .  A
C2322      F2327   1.340       .  S
C2323      C2324   1.419       .  A
C2324      F2325   1.356       .  S
C2329      C2330   1.405       .  A
C2329      C2334   1.414       .  A
C2329      F2336   1.357       .  S
C2330      C2331   1.427       .  A
C2331      C2332   1.415       .  A
C2331      F2338   1.358       .  S
C2332      C2333   1.406       .  A
C2332      F2337   1.354       .  S
C2333      C2334   1.427       .  A
C2334      F2335   1.358       .  S
C2339      C2340   1.403       .  A
C2339      C2344   1.400       .  A
C2339      F2346   1.356       .  S
C2340      C2341   1.414       .  A
C2341      C2342   1.407       .  A
C2341      F2348   1.358       .  S
C2342      C2343   1.403       .  A
C2342      F2347   1.358       .  S
C2343      C2344   1.410       .  A
C2344      F2345   1.358       .  S
C2349      C2350   1.403       .  A
C2349      C2354   1.389       .  A
C2349      F2356   1.359       .  S
C2351      C2352   1.403       .  A
C2351      F2358   1.358   1_556  S
C2352      C2353   1.404       .  A
C2352      F2357   1.357       .  S
C2354      F2355   1.359       .  S
C2359      C2360   1.405       .  A
C2359      C2364   1.416       .  A
C2359      F2366   1.355       .  S
C2360      C2361   1.416       .  A
C2361      C2362   1.405       .  A
C2361      F2368   1.357       .  S
C2362      C2363   1.400       .  A
C2362      F2367   1.355       .  S
C2363      C2364   1.409       .  A
C2364      F2365   1.351       .  S
C2369      C2370   1.409       .  A
C2369      C2374   1.410       .  A
C2369      F2376   1.357   1_455  S
C2370      C2371   1.422       .  A
C2371      C2372   1.404       .  A
C2371      F2378   1.355       .  S
C2372      C2373   1.403       .  A
C2372      F2377   1.358       .  S
C2373      C2374   1.418       .  A
C2374      F2375   1.358       .  S
C2379      C2380   1.412       .  A
C2379      C2384   1.403       .  A
C2380      C2381   1.397   1_556  A
C2381      C2382   1.389   1_554  A
C2381      F2388   1.357       .  S
C2382      C2383   1.411       .  A
C2382      F2387   1.360   1_556  S
C2383      C2384   1.400       .  A
C2389      C2390   1.405       .  A
C2389      C2394   1.403       .  A
C2389      F2396   1.353       .  S
C2390      C2391   1.413       .  A
C2391      C2392   1.390       .  A
C2391      F2398   1.359       .  S
C2392      C2393   1.403       .  A
C2392      F2397   1.358       .  S
C2393      C2394   1.410       .  A
C2394      F2395   1.358       .  S
C2399      C2400   1.409       .  A
C2399      C2404   1.404       .  A
C2399      F2406   1.358       .  S
C2401      F2408   1.359       .  S
C2402      C2403   1.418       .  A
C2402      F2407   1.358   1_556  S
C2403      C2404   1.406       .  A
C2404      F2405   1.357       .  S
C2409      C2410   1.411       .  A
C2409      C2414   1.411       .  A
C2409      F2416   1.355       .  S
C2410      C2411   1.409       .  A
C2411      C2412   1.399       .  A
C2411      F2418   1.358       .  S
C2412      C2413   1.406       .  A
C2412      F2417   1.358       .  S
C2413      C2414   1.409       .  A
C2414      F2415   1.358       .  S
C2419      C2420   1.396       .  A
C2419      C2424   1.400       .  A
C2419      F2426   1.358       .  S
C2420      C2421   1.421       .  A
C2421      C2422   1.396       .  A
C2421      F2428   1.353       .  S
C2422      C2423   1.391       .  A
C2422      F2427   1.358       .  S
C2423      C2424   1.421       .  A
C2424      F2425   1.355       .  S
C2429      C2430   1.391       .  A
C2429      C2434   1.387       .  A
C2429      F2436   1.358       .  S
C2430      C2431   1.402       .  A
C2431      C2432   1.375       .  A
C2431      F2438   1.355       .  S
C2432      C2433   1.400       .  A
C2432      F2437   1.359       .  S
C2433      C2434   1.417       .  A
C2439      C2440   1.416       .  A
C2439      C2444   1.412       .  A
C2439      F2446   1.358       .  S
C2440      C2441   1.413       .  A
C2441      C2442   1.421       .  A
C2441      F2448   1.357       .  S
C2442      C2443   1.421       .  A
C2442      F2447   1.357       .  S
C2443      C2444   1.415       .  A
C2444      F2445   1.358       .  S
