geometry optimzed in LAMMPS
_audit_creation_date              2020-11-30 
_audit_creation_method            'lammps2cif' 
_symmetry_space_group_name_H-M    'P1' 
_symmetry_Int_Tables_number       1 
_symmetry_cell_setting            triclinic 
loop_ 
_symmetry_equiv_pos_as_xyz 
  x,y,z 
_cell_length_a                    37.04168723 
_cell_length_b                    37.064118685278295 
_cell_length_c                    43.16223038114521 
_cell_angle_alpha                 89.8807353513282 
_cell_angle_beta                  90.29292818851096 
_cell_angle_gamma                 121.42143741766107 
loop_ 
_atom_site_label 
_atom_site_type_symbol 
_atom_site_fract_x 
_atom_site_fract_y 
_atom_site_fract_z 
_atom_site_charge 
C1          C  0.36806352  0.88413633  0.24933790     0.88800
C2          C  0.36518315  0.90557913  0.27874105    -0.51500
C3          C  0.32865082  0.90596685  0.28091159     0.11700
C4          C  0.29818704  0.88427430  0.25323500     0.22600
C5          C  0.32827870  0.83967385  0.24959638    -0.52200
C6          C  0.29167410  0.83986785  0.25161344     0.11800
C7          C  0.36139920  0.90718078  0.22235674    -0.51700
C8          C  0.32437278  0.90704463  0.22427327     0.12400
H9          H  0.38964284  0.91877777  0.29651407     0.16900
H10         H  0.26779921  0.88329443  0.25456249     0.02600
H11         H  0.32897338  0.81078349  0.24809404     0.17200
H12         H  0.38380010  0.92154758  0.20354605     0.17000
C13         C  0.54869081  0.88058742  0.25246852     0.88800
C14         C  0.57974829  0.90357671  0.22585280    -0.51500
C15         C  0.61635237  0.90295866  0.22818275     0.11700
C16         C  0.61826793  0.87995177  0.25733150     0.22600
C17         C  0.54161455  0.83591836  0.25276494    -0.52200
C18         C  0.57826392  0.83581646  0.25529722     0.11800
C19         C  0.57364047  0.90154932  0.28220393    -0.51700
C20         C  0.61025684  0.90134913  0.28495472     0.12400
H21         H  0.57232949  0.91755110  0.20664829     0.16900
H22         H  0.64744408  0.87863274  0.25908614     0.02600
H23         H  0.51067533  0.80718478  0.25097235     0.17200
H24         H  0.56280712  0.91452843  0.29987742     0.17000
C25         C  0.55724979  0.58420955  0.24929677     0.88800
C26         C  0.58172304  0.58761933  0.27885135    -0.51500
C27         C  0.61846053  0.62560413  0.28223536     0.11700
C28         C  0.62694299  0.65688899  0.25544020     0.22600
C29         C  0.55032053  0.62142433  0.25061305    -0.54600
C30         C  0.58686278  0.65950344  0.25383474     0.11800
C31         C  0.58838294  0.59447600  0.22270248    -0.51700
C32         C  0.62512911  0.63304836  0.22562788     0.12400
H33         H  0.57067247  0.56241427  0.29586808     0.16900
H34         H  0.65626751  0.68838609  0.25791486     0.02600
H35         H  0.51939844  0.61802413  0.24898203     0.17200
H36         H  0.58089501  0.57334059  0.20318394     0.17000
C37         C  0.36962456  0.40155559  0.25021771     0.88800
C38         C  0.35984833  0.37033132  0.22370099    -0.51500
C39         C  0.32102215  0.33393989  0.22609142     0.11700
C40         C  0.29610972  0.33269782  0.25489839     0.22600
C41         C  0.33286796  0.40931351  0.25037577    -0.52200
C42         C  0.29433522  0.37314039  0.25283805     0.11800
C43         C  0.36463475  0.37675265  0.27992547    -0.51700
C44         C  0.32615266  0.34032934  0.28240175     0.12400
H45         H  0.38180500  0.37711733  0.20490440     0.16900
H46         H  0.26421656  0.30378079  0.25658924     0.02600
H47         H  0.33689809  0.44046019  0.24856653     0.17200
H48         H  0.38926523  0.38706421  0.29744664     0.17000
C49         C  0.06759010  0.40361363  0.24849306     0.88800
C50         C  0.04516654  0.37314873  0.27560756    -0.51500
C51         C  0.04795740  0.33770994  0.27470963     0.11700
C52         C  0.07245865  0.33618742  0.24658993     0.22600
C53         C  0.11320763  0.41308452  0.24947980    -0.52200
C54         C  0.11552570  0.37755924  0.24851790     0.11800
C55         C  0.04804170  0.37697059  0.21912709    -0.51700
C56         C  0.05031797  0.34136694  0.21801162     0.12400
H57         H  0.02932663  0.37971939  0.29382064     0.16900
H58         H  0.07552534  0.30798031  0.24612896     0.02600
H59         H  0.14094251  0.44475900  0.25103981     0.17200
H60         H  0.03398504  0.38572026  0.20068922     0.17000
C61         C  0.05796134  0.58148378  0.24827662     0.88800
C62         C  0.03754862  0.58634323  0.21885164    -0.51500
C63         C  0.03790027  0.62335373  0.21736072     0.11700
C64         C  0.05897753  0.65216725  0.24599330     0.22600
C65         C  0.10264229  0.62088310  0.24912461    -0.52200
C66         C  0.10314316  0.65788497  0.24792957     0.11800
C67         C  0.03458613  0.58717940  0.27530347    -0.51700
C68         C  0.03550597  0.62465606  0.27446540     0.12400
H69         H  0.02497152  0.56302085  0.20035810     0.16900
H70         H  0.06036494  0.68278411  0.24534617     0.02600
H71         H  0.13126888  0.61964424  0.25064708     0.17200
H72         H  0.01984295  0.56399447  0.29365066     0.17000
In73       In  0.99670402  0.21397103  0.89961991     1.36900
C74         C  0.92295473  0.14177497  0.89580594     0.79800
O75         O  0.00499612  0.19681650  0.94768715    -0.58600
O76         O  0.99360013  0.24710698  0.94245385    -0.49500
C77         C  0.07298307  0.22695137  0.88724697     0.72500
O78         O  0.03965005  0.19118137  0.88483983    -0.44400
C79         C  0.98393390  0.25684101  0.85592255     0.77200
O80         O  0.95691508  0.14527982  0.88665282    -0.56200
O81         O  0.99667648  0.27166471  0.88272596    -0.46300
O82         O  0.92666044  0.17480144  0.90718811    -0.52700
C83         C  0.99975766  0.22414029  0.96061305     0.87400
O84         O  0.06746515  0.25639591  0.89518647    -0.54500
O85         O  0.97958815  0.22122882  0.85133773    -0.57800
In86       In  0.73578025  0.95832643  0.89120649     1.36900
C87         C  0.80905803  0.03145419  0.89064595     0.79800
O88         O  0.72758747  0.97055228  0.84137999    -0.58600
O89         O  0.67814610  0.95682331  0.87267889    -0.49500
C90         C  0.72630495  0.88311004  0.88106155     0.72500
O91         O  0.76017211  0.91726870  0.87538729    -0.44400
C92         C  0.72126036  0.95660060  0.95164384     0.77200
O93         O  0.80596323  0.99697575  0.88373440    -0.56200
O94         O  0.69968714  0.96232622  0.93177979    -0.46300
O95         O  0.77472999  0.02892778  0.89719292    -0.52700
C96         C  0.69193081  0.96634936  0.84543816     0.87400
O97         O  0.69668977  0.88709591  0.89104362    -0.54500
O98         O  0.74938956  0.95099620  0.94068968    -0.57800
In99       In  0.73705861  0.70336484  0.10148731     1.36900
C100        C  0.73116993  0.77163642  0.10387123     0.79800
O101        O  0.75519062  0.72165911  0.05202474    -0.58600
O102        O  0.69843556  0.66313410  0.06065070    -0.49500
C103        C  0.80677531  0.69999517  0.10929302     0.72500
O104        O  0.80639215  0.73351860  0.11255004    -0.44400
C105        C  0.68639746  0.65928993  0.14851101     0.77200
O106        O  0.76424309  0.77216640  0.11181461    -0.56200
O107        O  0.68095326  0.64483964  0.12135934    -0.46300
O108        O  0.70092024  0.73624939  0.09502173    -0.52700
C109        C  0.72334945  0.68929838  0.04089619     0.87400
O110        O  0.77141432  0.66779343  0.10285966    -0.54500
O111        O  0.71856232  0.69574828  0.15189444    -0.57800
In112      In  0.25735834  0.20909013  0.10924697     1.36900
C113        C  0.18095169  0.19864626  0.11212789     0.79800
O114        O  0.26406271  0.23301037  0.15788966    -0.58600
O115        O  0.31499682  0.26822968  0.12699036    -0.49500
C116        C  0.27488410  0.14869082  0.11760402     0.72500
O117        O  0.24042872  0.14472542  0.12578597    -0.44400
C118        C  0.26604507  0.22344215  0.04883196     0.77200
O119        O  0.18765636  0.16977310  0.11975794    -0.56200
O120        O  0.28562468  0.25267036  0.06835724    -0.46300
O121        O  0.21305094  0.23261701  0.10338994    -0.52700
C122        C  0.29996248  0.26550153  0.15357912     0.87400
O123        O  0.30126914  0.18408791  0.10616658    -0.54500
O124        O  0.24322012  0.18701222  0.06008253    -0.57800
In125      In  0.99913101  0.19767937  0.11341211     1.36900
C126        C  0.06884212  0.19406071  0.11374275     0.79800
O127        O  0.99688212  0.18290657  0.06305509    -0.58600
O128        O  0.00023113  0.24013798  0.07521045    -0.49500
C129        C  0.91955063  0.13358418  0.11979291     0.72500
O130        O  0.95080194  0.12885555  0.12089745    -0.44400
C131        C  0.01520693  0.24606130  0.16352459     0.77200
O132        O  0.03305608  0.16249414  0.12016833    -0.56200
O133        O  0.01260016  0.25813536  0.13668682    -0.46300
O134        O  0.06911213  0.22736631  0.10735217    -0.52700
C135        C  0.99872728  0.21607507  0.05396106     0.87400
O136        O  0.92873293  0.17116383  0.11612375    -0.54500
O137        O  0.00820256  0.20899896  0.16473570    -0.57800
In138      In  0.73183612  0.95351865  0.10601648     1.36900
C139        C  0.72847717  0.88010633  0.10555765     0.79800
O140        O  0.70985689  0.93790975  0.15538716    -0.58600
O141        O  0.67689374  0.95644895  0.12549659    -0.49500
C142        C  0.80219289  0.02748753  0.11754165     0.72500
O143        O  0.79910132  0.99253824  0.12253453    -0.44400
C144        C  0.72043239  0.95742603  0.04540579     0.77200
O145        O  0.76158110  0.91454168  0.11228097    -0.56200
O146        O  0.69175847  0.94942701  0.06470598    -0.46300
O147        O  0.69674353  0.88282106  0.09923682    -0.52700
C148        C  0.67958379  0.94391982  0.15209567     0.87400
O149        O  0.76877833  0.02499823  0.10791247    -0.54500
O150        O  0.75462572  0.96428209  0.05703885    -0.57800
In151      In  0.26236159  0.96370531  0.10436933     1.36900
C152        C  0.18740837  0.89268042  0.10773309     0.79800
O153        O  0.24275806  0.96815966  0.05609286    -0.58600
O154        O  0.29666664  0.96256618  0.06137286    -0.49500
C155        C  0.27701558  0.04090396  0.11524528     0.72500
O156        O  0.24137900  0.00790847  0.11874272    -0.44400
C157        C  0.30404337  0.94935339  0.14856656     0.77200
O158        O  0.19352843  0.92771387  0.11683631    -0.56200
O159        O  0.31693864  0.95776970  0.12101411    -0.46300
O160        O  0.21962247  0.89361282  0.09734901    -0.52700
C161        C  0.27160294  0.96549636  0.04313755     0.87400
O162        O  0.30603361  0.03480587  0.10713454    -0.54500
O163        O  0.27083389  0.94981097  0.15366562    -0.57800
In164      In  0.99550278  0.71420199  0.10684129     1.36900
C165        C  0.07092697  0.78481938  0.10816432     0.79800
O166        O  0.99895080  0.71092646  0.15865071    -0.58600
O167        O  0.00497536  0.66611089  0.13236390    -0.49500
C168        C  0.91937216  0.70484889  0.11137864     0.72500
O169        O  0.95321585  0.74033480  0.11312268    -0.44400
C170        C  0.99251926  0.69483091  0.04703048     0.77200
O171        O  0.03735633  0.78440933  0.11390974    -0.56200
O172        O  0.98836933  0.66933715  0.06820048    -0.46300
O173        O  0.06601543  0.74940256  0.10169622    -0.52700
C174        C  0.00553762  0.68087196  0.15886771     0.87400
O175        O  0.92418421  0.67382088  0.10802703    -0.54500
O176        O  0.99794543  0.72944271  0.05644066    -0.57800
In177      In  0.74300932  0.71262337  0.88821924     1.36900
C178        C  0.81496469  0.71444903  0.89045776     0.79800
O179        O  0.75521559  0.72851889  0.93839077    -0.58600
O180        O  0.70020368  0.66977563  0.92636738    -0.49500
C181        C  0.72953383  0.77557246  0.88001564     0.72500
O182        O  0.76597505  0.78088617  0.88077824    -0.44400
C183        C  0.71616355  0.66660498  0.83683051     0.77200
O184        O  0.81359320  0.74699421  0.88426001    -0.56200
O185        O  0.69704648  0.65323211  0.86235056    -0.46300
O186        O  0.77988499  0.68137657  0.89568209    -0.52700
C187        C  0.72347226  0.69460849  0.94758050     0.87400
O188        O  0.69942074  0.73775184  0.88262384    -0.54500
O189        O  0.74675835  0.70426299  0.83728650    -0.57800
In190      In  0.24985043  0.22165869  0.89447650     1.36900
C191        C  0.24538240  0.14803963  0.89128961     0.79800
O192        O  0.27391096  0.22919746  0.84602763    -0.58600
O193        O  0.31028299  0.27913660  0.87759341    -0.49500
C194        C  0.18490111  0.23205086  0.88400227     0.72500
O195        O  0.18332436  0.19787442  0.87897912    -0.44400
C196        C  0.26068206  0.23099295  0.95541634     0.77200
O197        O  0.21507262  0.15233030  0.88333369    -0.56200
O198        O  0.28958859  0.25450666  0.93676870    -0.46300
O199        O  0.27803453  0.18124577  0.90061208    -0.52700
C200        C  0.30735854  0.26425542  0.85084142     0.87400
O201        O  0.22043882  0.26208059  0.89294067    -0.54500
O202        O  0.22620436  0.20398545  0.94305260    -0.57800
In203      In  0.24326187  0.96573702  0.89042569     1.36900
C204        C  0.24202308  0.03658329  0.88990890     0.79800
O205        O  0.22803103  0.96070499  0.94082492    -0.58600
O206        O  0.28701668  0.96821548  0.92826225    -0.49500
C207        C  0.17938798  0.88676433  0.88431704     0.72500
O208        O  0.17455387  0.91796999  0.88364666    -0.44400
C209        C  0.28754927  0.97809730  0.83910774     0.77200
O210        O  0.20941971  0.00105217  0.88447028    -0.56200
O211        O  0.30174545  0.97757794  0.86566474    -0.46300
O212        O  0.27505764  0.03597328  0.89561465    -0.52700
C213        C  0.26217941  0.96433010  0.94969340     0.87400
O214        O  0.21702003  0.89571240  0.88744279    -0.54500
O215        O  0.25052994  0.97131469  0.83884765    -0.57800
In216      In  0.99217333  0.70829680  0.89303987     1.36900
C217        C  0.92265335  0.71119184  0.89251040     0.79800
O218        O  0.98076658  0.69852627  0.84192762    -0.58600
O219        O  0.98442214  0.65136862  0.86720964    -0.49500
C220        C  0.06997527  0.77356804  0.88518664     0.72500
O221        O  0.03761764  0.77619618  0.88246471    -0.44400
C222        C  0.99209067  0.69220677  0.95339801     0.77200
O223        O  0.95886410  0.74382450  0.88985571    -0.56200
O224        O  0.98801347  0.66592389  0.93297467    -0.46300
O225        O  0.92173053  0.67687137  0.89550525    -0.52700
C226        C  0.97854794  0.66350582  0.84125687     0.87400
O227        O  0.06291585  0.73710966  0.89111372    -0.54500
O228        O  0.99666176  0.72600206  0.94296407    -0.57800
C229        C  0.92896404  0.32601147  0.75126583     0.88800
C230        C  0.95162866  0.31888485  0.72424824    -0.51500
C231        C  0.94646647  0.27940799  0.72439516     0.11700
C232        C  0.91929796  0.25145249  0.75129964     0.22600
C233        C  0.88263148  0.28987472  0.74874627    -0.52200
C234        C  0.87778822  0.25089843  0.74867492     0.11800
C235        C  0.94612829  0.31655663  0.78069418    -0.51700
C236        C  0.94113216  0.27722944  0.78061755     0.12400
H237        H  0.96955810  0.34273187  0.70685486     0.16900
H238        H  0.91467207  0.21930361  0.75132152     0.02600
H239        H  0.85615843  0.29467782  0.74686928     0.17200
H240        H  0.96086800  0.33911370  0.79946651     0.17000
C241        C  0.93027816  0.50936688  0.75398895     0.88800
C242        C  0.95190495  0.53729547  0.78235581    -0.51500
C243        C  0.95160701  0.57400684  0.78263802     0.11700
C244        C  0.92994083  0.57942259  0.75361533     0.22600
C245        C  0.88564557  0.50247933  0.75341916    -0.52200
C246        C  0.88554482  0.53925680  0.75323266     0.11800
C247        C  0.95270086  0.53743750  0.72598201    -0.51700
C248        C  0.95257722  0.57419206  0.72537883     0.12400
H249        H  0.96491997  0.52802396  0.80121725     0.16900
H250        H  0.92840910  0.60841303  0.75326144     0.02600
H251        H  0.85685681  0.47146885  0.75333511     0.17200
H252        H  0.96633479  0.52832688  0.70760499     0.17000
C253        C  0.61795449  0.01713667  0.74241560     0.88800
C254        C  0.62766537  0.99743378  0.77009818    -0.51500
C255        C  0.66656839  0.00143046  0.76849063     0.11700
C256        C  0.69143015  0.02434008  0.73915770     0.22600
C257        C  0.65494654  0.06308116  0.74117516    -0.52200
C258        C  0.69335989  0.06669425  0.73946341     0.11800
C259        C  0.62303584  0.99597342  0.71368412    -0.51700
C260        C  0.66154742  0.99946614  0.71192817     0.12400
H261        H  0.60579580  0.98247653  0.78913332     0.16900
H262        H  0.72330474  0.02851450  0.73806869     0.02600
H263        H  0.65116037  0.09023640  0.74191472     0.17200
H264        H  0.59859954  0.98012712  0.69610715     0.17000
C265        C  0.62810135  0.50900533  0.74977227     0.88800
C266        C  0.63845161  0.53981348  0.72277238    -0.51500
C267        C  0.67684561  0.57676529  0.72574137     0.11700
C268        C  0.70060813  0.57908929  0.75580236     0.22600
C269        C  0.66563846  0.50242149  0.75176018    -0.52200
C270        C  0.70371656  0.53923771  0.75484144     0.11800
C271        C  0.63123505  0.53389288  0.77886987    -0.51700
C272        C  0.66895357  0.57088582  0.78210659     0.12400
H273        H  0.61732095  0.53219352  0.70313818     0.16900
H274        H  0.73191678  0.60866884  0.75827850     0.02600
H275        H  0.66247980  0.47163677  0.75031506     0.17200
H276        H  0.60564296  0.52331035  0.79543118     0.17000
C277        C  0.43873140  0.02223650  0.75095273     0.88800
C278        C  0.40731987  0.00060585  0.72414872    -0.51500
C279        C  0.37276782  0.00485984  0.72566473     0.11700
C280        C  0.37288157  0.02961661  0.75425218     0.22600
C281        C  0.44969195  0.06831630  0.75055154    -0.52200
C282        C  0.41498209  0.07194656  0.75234504     0.11800
C283        C  0.41287653  0.00320964  0.78050717    -0.51700
C284        C  0.37816413  0.00690109  0.78235899     0.12400
H285        H  0.41273006  0.98425987  0.70563794     0.16900
H286        H  0.34535032  0.03377392  0.75531929     0.02600
H287        H  0.48176044  0.09541752  0.74908806     0.17200
H288        H  0.42168423  0.98882676  0.79864729     0.17000
C289        C  0.43903023  0.32643006  0.75002775     0.88800
C290        C  0.41006625  0.31987155  0.77758463    -0.51500
C291        C  0.37411173  0.28043415  0.77814412     0.11700
C292        C  0.37112476  0.25179599  0.75126567     0.22600
C293        C  0.44797155  0.29053508  0.75225016    -0.52200
C294        C  0.41233039  0.25145989  0.75285160     0.11800
C295        C  0.41095655  0.31638752  0.72117150    -0.51700
C296        C  0.37505315  0.27698694  0.72184812     0.12400
H297        H  0.41742071  0.34430719  0.79458725     0.16900
H298        H  0.34225787  0.21963656  0.75175542     0.02600
H299        H  0.47960549  0.29553372  0.75289299     0.17200
H300        H  0.41901910  0.33869440  0.70233510     0.17000
In301      In  0.74236901  0.69792693  0.60575446     1.36900
C302        C  0.81603466  0.70313326  0.60939106     0.79800
O303        O  0.73626429  0.67469715  0.65478829    -0.58600
O304        O  0.68510033  0.63887627  0.62394438    -0.49500
C305        C  0.73312835  0.76349385  0.61516452     0.72500
O306        O  0.76818914  0.76594986  0.61706523    -0.44400
C307        C  0.72968746  0.68604380  0.54499770     0.77200
O308        O  0.81035892  0.73142260  0.61992946    -0.56200
O309        O  0.70736665  0.65729024  0.56416377    -0.46300
O310        O  0.78410843  0.67194875  0.59709769    -0.52700
C311        C  0.70029040  0.64215328  0.65069604     0.87400
O312        O  0.70200856  0.72707112  0.60947209    -0.54500
O313        O  0.75761032  0.72051102  0.55678818    -0.57800
In314      In  0.75254472  0.95273177  0.60685414     1.36900
C315        C  0.82584692  0.02574271  0.60648491     0.79800
O316        O  0.76394610  0.94843235  0.55668590    -0.58600
O317        O  0.70994370  0.95154698  0.56841251    -0.49500
C318        C  0.73832047  0.87537336  0.61516463     0.72500
O319        O  0.77460912  0.90807638  0.61740013    -0.44400
C320        C  0.72050055  0.96589375  0.65750402     0.77200
O321        O  0.82352295  0.99095260  0.61085608    -0.56200
O322        O  0.70462267  0.96260383  0.63093432    -0.46300
O323        O  0.79101182  0.02323897  0.60196156    -0.52700
C324        C  0.73232314  0.94954103  0.54731905     0.87400
O325        O  0.70886947  0.88197195  0.60935050    -0.54500
O326        O  0.75153527  0.96080809  0.65821066    -0.57800
In327      In  0.00611061  0.21640996  0.60790517     1.36900
C328        C  0.93547867  0.14066341  0.60809286     0.79800
O329        O  0.98679321  0.22277496  0.65585604    -0.58600
O330        O  0.01135311  0.27610997  0.62651641    -0.49500
C331        C  0.08178956  0.22547816  0.61731436     0.72500
O332        O  0.04806964  0.19464471  0.62764503    -0.44400
C333        C  0.00387972  0.23040932  0.54780388     0.77200
O334        O  0.97090769  0.14608498  0.61545460    -0.56200
O335        O  0.99830774  0.25139827  0.56810204    -0.46300
O336        O  0.93584154  0.17382563  0.60101773    -0.52700
C337        C  0.99516227  0.26008615  0.65229437     0.87400
O338        O  0.07740933  0.25294152  0.60354775    -0.54500
O339        O  0.01128958  0.20312122  0.55813551    -0.57800
In340      In  0.25468108  0.21216106  0.60184756     1.36900
C341        C  0.25641328  0.14161428  0.60396913     0.79800
O342        O  0.23078353  0.19303510  0.55337452    -0.58600
O343        O  0.29012074  0.25005134  0.55973605    -0.49500
C344        C  0.18967988  0.22199273  0.61386271     0.72500
O345        O  0.18703489  0.18678811  0.61562671    -0.44400
C346        C  0.31187736  0.25463967  0.64585652     0.77200
O347        O  0.22577680  0.14366668  0.61433471    -0.56200
O348        O  0.31652764  0.26778038  0.61835765    -0.46300
O349        O  0.28604925  0.17538581  0.59258017    -0.52700
C350        C  0.26253297  0.22411989  0.54105447     0.87400
O351        O  0.22573329  0.25253201  0.60672731    -0.54500
O352        O  0.27731260  0.22083850  0.65101811    -0.57800
In353      In  0.25857687  0.96138874  0.60290091     1.36900
C354        C  0.25872245  0.03301903  0.60469617     0.79800
O355        O  0.27989079  0.97405278  0.65256966    -0.58600
O356        O  0.31596326  0.96196941  0.62092184    -0.49500
C357        C  0.19164080  0.88532771  0.61500433     0.72500
O358        O  0.19290513  0.91911304  0.62118713    -0.44400
C359        C  0.27040247  0.96036315  0.54214688     0.77200
O360        O  0.22558993  0.99740296  0.60819363    -0.56200
O361        O  0.29873348  0.96696270  0.56157116    -0.46300
O362        O  0.29197030  0.03231072  0.60054336    -0.52700
C363        C  0.31177026  0.97091818  0.64829713     0.87400
O364        O  0.22493834  0.89008541  0.60330023    -0.54500
O365        O  0.23635896  0.95372013  0.55369210    -0.57800
In366      In  0.99971314  0.70949738  0.61513512     1.36900
C367        C  0.92832605  0.70899598  0.61382405     0.79800
O368        O  0.00020455  0.72184503  0.56426615    -0.58600
O369        O  0.99873196  0.66593987  0.57781349    -0.49500
C370        C  0.07813790  0.77554400  0.62052841     0.72500
O371        O  0.04601045  0.77879233  0.62187524    -0.44400
C372        C  0.98546621  0.66578645  0.66760248     0.77200
O373        O  0.96333415  0.74214636  0.61958794    -0.56200
O374        O  0.98964286  0.65240287  0.64176936    -0.46300
O375        O  0.92975261  0.67629704  0.60890735    -0.52700
C376        C  0.99879613  0.68862435  0.55590811     0.87400
O377        O  0.07043847  0.73839385  0.61723966    -0.54500
O378        O  0.99019849  0.70193663  0.66665743    -0.57800
In379      In  0.99355322  0.68767460  0.40104629     1.36900
C380        C  0.06581134  0.76066267  0.39604925     0.79800
O381        O  0.99279602  0.70755075  0.44991096    -0.58600
O382        O  0.99356187  0.65124944  0.44370914    -0.49500
C383        C  0.91839770  0.67849339  0.39165404     0.72500
O384        O  0.95255943  0.71331448  0.38909430    -0.44400
C385        C  0.00254101  0.64583881  0.35412690     0.77200
O386        O  0.03057886  0.75666507  0.39031941    -0.56200
O387        O  0.99766591  0.63316295  0.38181945    -0.46300
O388        O  0.06448191  0.72728023  0.40409784    -0.52700
C389        C  0.99354038  0.67733766  0.46244152     0.87400
O390        O  0.92218604  0.64752737  0.39846009    -0.54500
O391        O  0.00137812  0.67892451  0.35039838    -0.57800
In392      In  0.75525807  0.70673109  0.39242954     1.36900
C393        C  0.76252035  0.78149515  0.39197192     0.79800
O394        O  0.74893520  0.70663320  0.34093263    -0.58600
O395        O  0.69510783  0.66206657  0.36663112    -0.49500
C396        C  0.81452011  0.68758995  0.38736373     0.72500
O397        O  0.82226397  0.72484902  0.38502752    -0.44400
C398        C  0.73615139  0.68868827  0.45173903     0.77200
O399        O  0.79379163  0.77738832  0.38737366    -0.56200
O400        O  0.71101935  0.66580710  0.43052572    -0.46300
O401        O  0.72790955  0.74768879  0.39687127    -0.52700
C402        C  0.71049184  0.67783660  0.34046313     0.87400
O403        O  0.77619414  0.65960985  0.39144410    -0.54500
O404        O  0.77060226  0.71981735  0.44262424    -0.57800
In405      In  0.24206625  0.95266550  0.38955356     1.36900
C406        C  0.17328808  0.87638981  0.39120299     0.79800
O407        O  0.24288703  0.94644977  0.33804528    -0.58600
O408        O  0.29130894  0.94578401  0.36408560    -0.49500
C409        C  0.24682316  0.02624171  0.38238266     0.72500
O410        O  0.21251598  0.99126303  0.38030348    -0.44400
C411        C  0.26428800  0.95820917  0.44879285     0.77200
O412        O  0.17172486  0.90922228  0.38702847    -0.56200
O413        O  0.28939280  0.96292755  0.42728378    -0.46300
O414        O  0.20983033  0.88239190  0.39443443    -0.52700
C415        C  0.27461125  0.94248870  0.33782481     0.87400
O416        O  0.27907076  0.02386713  0.38743883    -0.54500
O417        O  0.22878654  0.95120922  0.43998739    -0.57800
In418      In  0.23519755  0.20073046  0.38859589     1.36900
C419        C  0.16430309  0.20171395  0.38948047     0.79800
O420        O  0.22334118  0.18528706  0.43870733    -0.58600
O421        O  0.27977052  0.24255861  0.42651286    -0.49500
C422        C  0.24392981  0.13452989  0.38169480     0.72500
O423        O  0.20854758  0.13165674  0.38064495    -0.44400
C424        C  0.26826934  0.24640837  0.33773861     0.77200
O425        O  0.16477601  0.16878872  0.38318164    -0.56200
O426        O  0.28438540  0.25975446  0.36421556    -0.46300
O427        O  0.19983058  0.23401807  0.39530478    -0.52700
C428        C  0.25638068  0.21824577  0.44775421     0.87400
O429        O  0.27528095  0.17145877  0.38545199    -0.54500
O430        O  0.23662999  0.20934699  0.33728026    -0.57800
In431      In  0.99145784  0.21664327  0.39377568     1.36900
C432        C  0.05868346  0.20912580  0.39131033     0.79800
O433        O  0.00923861  0.24180946  0.34550415    -0.58600
O434        O  0.99161353  0.27430800  0.37631327    -0.49500
C435        C  0.91390078  0.15116403  0.38383716     0.72500
O436        O  0.94660640  0.15170670  0.37537974    -0.44400
C437        C  0.99460736  0.22951932  0.45446085     0.77200
O438        O  0.02206414  0.17901198  0.38481475    -0.56200
O439        O  0.00536610  0.25905480  0.43527905    -0.46300
O440        O  0.06117793  0.24317668  0.39875874    -0.52700
C441        C  0.00468787  0.27279629  0.34974882     0.87400
O442        O  0.92036738  0.18502202  0.39581369    -0.54500
O443        O  0.98145267  0.19372624  0.44272303    -0.57800
In444      In  0.74907560  0.95461242  0.39408889     1.36900
C445        C  0.75943380  0.88921662  0.39269266     0.79800
O446        O  0.76626325  0.95817495  0.44410947    -0.58600
O447        O  0.70557704  0.94808526  0.43340048    -0.49500
C448        C  0.80812011  0.03534249  0.38621978     0.72500
O449        O  0.81485528  0.00572793  0.38227959    -0.44400
C450        C  0.70208738  0.93789638  0.34310911     0.77200
O451        O  0.79002658  0.92669362  0.38997712    -0.56200
O452        O  0.68774664  0.93727557  0.36974641    -0.46300
O453        O  0.72374147  0.88512421  0.39617818    -0.52700
C454        C  0.73176432  0.95232858  0.45407679     0.87400
O455        O  0.77089397  0.02398815  0.39396285    -0.54500
O456        O  0.74016338  0.94794766  0.34276403    -0.57800
C457        C  0.84125874  0.07878121  0.38299422    -0.11000
C458        C  0.87280569  0.11344818  0.38199886    -0.12600
C459        C  0.12615391  0.20261546  0.38992842    -0.11000
C460        C  0.09497300  0.20497732  0.39041980    -0.12600
C461        C  0.24859282  0.06583052  0.38007036    -0.11000
C462        C  0.24778079  0.09796542  0.37982040    -0.12600
C463        C  0.76455508  0.85352610  0.39192933    -0.11000
C464        C  0.76561572  0.82162733  0.39169232    -0.12600
C465        C  0.10448576  0.80065086  0.39388913    -0.11000
C466        C  0.13609279  0.83509359  0.39244012    -0.12600
C467        C  0.87838614  0.67536387  0.38803653    -0.11000
C468        C  0.84756304  0.67835170  0.38664654    -0.12600
C469        C  0.99684802  0.67785046  0.52359640    -0.11000
C470        C  0.99496321  0.67416268  0.49568819    -0.12600
C471        C  0.27590558  0.96071952  0.50916252    -0.11000
C472        C  0.27436181  0.96030834  0.48120652    -0.12600
C473        C  0.12032330  0.81196915  0.62135560    -0.11000
C474        C  0.15411930  0.84458509  0.61965549    -0.12600
C475        C  0.26680249  0.22864576  0.50803579    -0.11000
C476        C  0.26548105  0.22697892  0.48014131    -0.12600
C477        C  0.25750538  0.10353943  0.60488462    -0.11000
C478        C  0.25841657  0.07152558  0.60509943    -0.12600
C479        C  0.99809008  0.23575210  0.48736502    -0.11000
C480        C  0.00107729  0.23602535  0.51518472    -0.12600
C481        C  0.12171608  0.22767406  0.61939581    -0.11000
C482        C  0.15366410  0.22644456  0.61829934    -0.12600
C483        C  0.72375090  0.94939178  0.51476131    -0.11000
C484        C  0.72366956  0.95038634  0.48679048    -0.12600
C485        C  0.89749122  0.09966429  0.60758757    -0.11000
C486        C  0.86519382  0.06554515  0.60696341    -0.12600
C487        C  0.72493586  0.68034827  0.51203805    -0.11000
C488        C  0.72682683  0.68092438  0.48415047    -0.12600
C489        C  0.85604156  0.70624578  0.61129526    -0.11000
C490        C  0.88945266  0.70829957  0.61270865    -0.12600
C491        C  0.72980908  0.80024399  0.61788838    -0.11000
C492        C  0.73162222  0.83368857  0.61784746    -0.12600
C493        C  0.34488057  0.27654683  0.66972824    -0.14200
C494        C  0.34189756  0.25852655  0.69741072    -0.29300
H495        H  0.37260663  0.30663882  0.66367920     0.14900
H496        H  0.31416385  0.22775606  0.70230180     0.15400
C497        C  0.33934559  0.99069330  0.70150498    -0.14200
C498        C  0.34267895  0.97845316  0.67288654    -0.29300
H499        H  0.31234596  0.99358496  0.70690810     0.14900
H500        H  0.36980007  0.97639246  0.66649477     0.15400
C501        C  0.41722290  0.11198328  0.75263924    -0.16200
C502        C  0.41689253  0.14434602  0.75310261     0.07800
C503        C  0.41519720  0.18155108  0.75360469     0.09700
C504        C  0.41360912  0.21323684  0.75364465    -0.17100
C505        C  0.69616817  0.61104275  0.70214493    -0.14200
C506        C  0.67797797  0.60963555  0.67471242    -0.29300
H507        H  0.72756452  0.63779527  0.70722673     0.14900
H508        H  0.64689295  0.58325296  0.66876956     0.15400
C509        C  0.58678852  0.46971102  0.74688064    -0.16200
C510        C  0.55218072  0.43802424  0.74647691     0.07800
C511        C  0.51176913  0.40084851  0.74757157     0.09700
C512        C  0.47807366  0.36815316  0.74893654    -0.17100
C513        C  0.70563806  0.97660371  0.68558618    -0.14200
C514        C  0.67338643  0.98331929  0.68486238    -0.29300
H515        H  0.72276940  0.98039058  0.70696973     0.14900
H516        H  0.65539961  0.97751174  0.66355166     0.15400
C517        C  0.57674213  0.01381531  0.74427794    -0.16200
C518        C  0.54408284  0.01351654  0.74584001     0.07800
C519        C  0.50698464  0.01531402  0.74763660     0.09700
C520        C  0.47599671  0.01807368  0.74912650    -0.17100
C521        C  0.96865105  0.60227232  0.69773202    -0.14200
C522        C  0.97434492  0.64109338  0.69665523    -0.29300
H523        H  0.97504590  0.58982417  0.67706261     0.14900
H524        H  0.96946855  0.65488590  0.71713821     0.15400
C525        C  0.84692769  0.54019762  0.75331945    -0.16200
C526        C  0.81455808  0.54074265  0.75383473     0.07800
C527        C  0.77633236  0.54087675  0.75470966     0.09700
C528        C  0.74347138  0.54048786  0.75521480    -0.17100
C529        C  0.98497917  0.28245664  0.67572333    -0.14200
C530        C  0.96316802  0.26219088  0.70126805    -0.29300
H531        H  0.99307446  0.31453220  0.67084544     0.14900
H532        H  0.95524628  0.22988143  0.70508345     0.15400
C533        C  0.83726217  0.21239851  0.74544785    -0.16200
C534        C  0.80395000  0.17954234  0.74275987     0.07800
C535        C  0.76533677  0.14054087  0.74032380     0.09700
C536        C  0.73249857  0.10697345  0.73929562    -0.17100
C537        C  0.93087855  0.46993168  0.75402381    -0.16200
C538        C  0.93225851  0.43806777  0.75346495     0.07800
C539        C  0.93363687  0.40060971  0.75240409     0.09700
C540        C  0.93322249  0.36780180  0.75155766    -0.17100
C541        C  0.96848542  0.63894136  0.81220134    -0.14200
C542        C  0.96640499  0.60175055  0.81059395    -0.29300
H543        H  0.96160673  0.65176203  0.79199374     0.14900
H544        H  0.97454232  0.59026695  0.83106807     0.15400
C545        C  0.14410572  0.84416265  0.88260497    -0.11000
C546        C  0.11163586  0.81024252  0.88285961    -0.12600
C547        C  0.31217383  0.98712537  0.81044799    -0.14200
C548        C  0.35129526  0.99351255  0.81040186    -0.29300
H549        H  0.29773685  0.98918087  0.78912184     0.14900
H550        H  0.36439841  0.98926974  0.83172970     0.15400
C551        C  0.24289689  0.10817662  0.89007682    -0.11000
C552        C  0.24176243  0.07511065  0.88971901    -0.12600
C553        C  0.34124788  0.28512413  0.82756176    -0.14200
C554        C  0.33981792  0.26465499  0.80145550    -0.29300
H555        H  0.36850912  0.31592272  0.83302667     0.14900
H556        H  0.31246623  0.23331940  0.79726284     0.15400
C557        C  0.85355996  0.71461091  0.89135858    -0.11000
C558        C  0.88516938  0.71311825  0.89201366    -0.12600
C559        C  0.70571421  0.64026995  0.80880289    -0.14200
C560        C  0.67715582  0.59869866  0.80918846    -0.29300
H561        H  0.72350914  0.65519626  0.78790900     0.14900
H562        H  0.65861838  0.58444477  0.82997898     0.15400
C563        C  0.99136321  0.68510511  0.98633249    -0.11000
C564        C  0.99137249  0.68600995  0.01436738    -0.12600
C565        C  0.27168346  0.96463684  0.98206196    -0.11000
C566        C  0.27460991  0.96520170  0.00994984    -0.12600
C567        C  0.14649094  0.85460838  0.10866636    -0.11000
C568        C  0.11190266  0.82286323  0.10874346    -0.12600
C569        C  0.87665929  0.09836149  0.12156478    -0.11000
C570        C  0.84170190  0.06697376  0.12099879    -0.12600
C571        C  0.26833435  0.23084927  0.01609673    -0.11000
C572        C  0.26657269  0.23336685  0.98836115    -0.12600
C573        C  0.28296793  0.08218799  0.11880506    -0.11000
C574        C  0.28217961  0.11430295  0.11954420    -0.12600
C575        C  0.10673665  0.19247511  0.11366747    -0.11000
C576        C  0.13988341  0.19366774  0.11324858    -0.12600
C577        C  0.71586761  0.68537802  0.98008025    -0.11000
C578        C  0.71628125  0.68376226  0.00800710    -0.12600
C579        C  0.72834614  0.80880898  0.10460745    -0.11000
C580        C  0.72734714  0.84080661  0.10503985    -0.12600
C581        C  0.84505880  0.69904977  0.11178102    -0.11000
C582        C  0.87840421  0.70046973  0.11236387    -0.12600
C583        C  0.72267108  0.84280001  0.87783263    -0.11000
C584        C  0.72342806  0.81066874  0.87754565    -0.12600
C585        C  0.71521639  0.95710655  0.98447517    -0.11000
C586        C  0.71491297  0.95762112  0.01243115    -0.12600
C587        C  0.66861399  0.97346128  0.82082687    -0.14200
C588        C  0.68573164  0.98803688  0.79278402    -0.29300
H589        H  0.63819814  0.96906971  0.82679453     0.14900
H590        H  0.71667111  0.99284629  0.78782236     0.15400
C591        C  0.99991611  0.22767127  0.99371549    -0.11000
C592        C  0.99940199  0.22524712  0.02158209    -0.12600
C593        C  0.88281849  0.10305433  0.89333433    -0.11000
C594        C  0.84897114  0.07059028  0.89164206    -0.12600
C595        C  0.14786958  0.23515351  0.88165434    -0.11000
C596        C  0.11429412  0.23314272  0.88269916    -0.12600
C597        C  0.97367636  0.27875784  0.83211025    -0.14200
C598        C  0.95496021  0.25919762  0.80539068    -0.29300
H599        H  0.98002909  0.31016489  0.83725820     0.14900
H600        H  0.94857733  0.22745869  0.80134977     0.15400
C601        C  0.01995644  0.64068737  0.29961326    -0.14200
C602        C  0.01066513  0.62447411  0.32852924    -0.29300
H603        H  0.01973974  0.66933461  0.29472708     0.14900
H604        H  0.01202938  0.59676215  0.33439530     0.15400
C605        C  0.02344280  0.63510797  0.18885568    -0.14200
C606        C  0.01492327  0.66616483  0.18804145    -0.29300
H607        H  0.02043423  0.61794199  0.16766374     0.14900
H608        H  0.01623892  0.68261083  0.20915820     0.15400
C609        C  0.03185250  0.30405709  0.29865758    -0.14200
C610        C  0.01521734  0.30543195  0.32594766    -0.29300
H611        H  0.03596288  0.27762954  0.29396342     0.14900
H612        H  0.01124647  0.33159896  0.33172928     0.15400
C613        C  0.03497580  0.31278486  0.19059361    -0.14200
C614        C  0.02685127  0.27296000  0.19144856    -0.29300
H615        H  0.03036903  0.32505898  0.16902136     0.14900
H616        H  0.02949251  0.25953361  0.21305216     0.15400
C617        C  0.05796742  0.54169619  0.24937540    -0.16200
C618        C  0.05937243  0.50980785  0.24976081     0.07800
C619        C  0.06204867  0.47300016  0.24976382     0.09700
C620        C  0.06465963  0.44179596  0.24941661    -0.17100
C621        C  0.31484940  0.31270592  0.30994043    -0.14200
C622        C  0.28338167  0.27209901  0.30944439    -0.29300
H623        H  0.33247652  0.32640882  0.33127143     0.14900
H624        H  0.26670861  0.25746028  0.28803671     0.15400
C625        C  0.30260496  0.29881841  0.20328699    -0.14200
C626        C  0.32206317  0.29871111  0.17710673    -0.29300
H627        H  0.27073035  0.27266021  0.20780650     0.14900
H628        H  0.35360700  0.32450390  0.17160042     0.15400
C629        C  0.25541971  0.37323547  0.25288707    -0.16200
C630        C  0.22356644  0.37458186  0.25238465     0.07800
C631        C  0.18666551  0.37689669  0.25125398     0.09700
C632        C  0.15485274  0.37828461  0.25000361    -0.17100
C633        C  0.64471001  0.63534590  0.31057446    -0.14200
C634        C  0.68577374  0.66554294  0.31145571    -0.29300
H635        H  0.62966259  0.61700207  0.33131491     0.14900
H636        H  0.70168490  0.68278844  0.29059282     0.15400
C637        C  0.65874614  0.65305495  0.20158481    -0.14200
C638        C  0.65626454  0.63566325  0.17365809    -0.29300
H639        H  0.68520993  0.68468119  0.20642814     0.14900
H640        H  0.63004272  0.60441136  0.16794550     0.15400
C641        C  0.51775006  0.54344170  0.24614952    -0.16200
C642        C  0.48447725  0.51044667  0.24520636     0.07800
C643        C  0.44499876  0.47247326  0.24586607     0.09700
C644        C  0.41101681  0.44037010  0.24752251    -0.17100
C645        C  0.63657713  0.91670143  0.31353829    -0.14200
C646        C  0.67695028  0.92665212  0.31429115    -0.29300
H647        H  0.62214766  0.91946736  0.33454187     0.14900
H648        H  0.69238475  0.92605921  0.29319833     0.15400
C649        C  0.64987105  0.91834434  0.20410735    -0.14200
C650        C  0.64863923  0.93536602  0.17680631    -0.29300
H651        H  0.67564372  0.91304167  0.20853906     0.14900
H652        H  0.62331168  0.94090785  0.17148281     0.15400
C653        C  0.57968792  0.79765633  0.25543588    -0.16200
C654        C  0.58224969  0.76652147  0.25539898     0.07800
C655        C  0.58546617  0.73017351  0.25524231     0.09700
C656        C  0.58720700  0.69857550  0.25487021    -0.17100
C657        C  0.28892206  0.93260755  0.30902469    -0.14200
C658        C  0.31904988  0.92282335  0.30880122    -0.29300
H659        H  0.27223700  0.93100286  0.28786343     0.14900
H660        H  0.33646667  0.92600570  0.32999485     0.15400
C661        C  0.32532110  0.93825556  0.17245377    -0.14200
C662        C  0.30810065  0.92437999  0.20061716    -0.29300
H663        H  0.35386181  0.93894551  0.16585653     0.14900
H664        H  0.27888334  0.92311844  0.20614718     0.15400
C665        C  0.25031642  0.80161315  0.25138753    -0.16200
C666        C  0.21575622  0.76966958  0.25078662     0.07800
C667        C  0.17562395  0.73175775  0.24980300     0.09700
C668        C  0.14209562  0.69864250  0.24889000    -0.17100
C669        C  0.50933382  0.88103602  0.24983563    -0.16200
C670        C  0.47724566  0.88189632  0.24829037     0.07800
C671        C  0.43972425  0.88308652  0.24734263     0.09700
C672        C  0.40753940  0.88384141  0.24752187    -0.17100
loop_ 
_geom_bond_atom_site_label_1 
_geom_bond_atom_site_label_2 
_geom_bond_distance 
_geom_bond_site_symmetry_2 
_ccdc_geom_bond_type 
C1            C2   1.532       .  S
C1            C7   1.536       .  S
C1            C5   1.535       .  S
C1          C672   1.470       .  S
C2            H9   1.087       .  S
C2            C3   1.364       .  D
C3            C4   1.546       .  S
C3          C658   1.485       .  S
C4            C8   1.540       .  S
C4            C6   1.536       .  S
C4           H10   1.109       .  S
C5           H11   1.087       .  S
C5            C6   1.363       .  D
C6          C665   1.447       .  S
C7           H12   1.084       .  S
C7            C8   1.372       .  D
C8          C662   1.488       .  S
C13          C14   1.535       .  S
C13          C19   1.532       .  S
C13          C17   1.535       .  S
C13         C669   1.470       .  S
C14          H21   1.084       .  S
C14          C15   1.371       .  D
C15          C16   1.540       .  S
C15         C649   1.490       .  S
C16          C20   1.546       .  S
C16          C18   1.533       .  S
C16          H22   1.109       .  S
C17          H23   1.086       .  S
C17          C18   1.363       .  D
C18         C653   1.443       .  S
C19          H24   1.086       .  S
C19          C20   1.365       .  D
C20         C645   1.486       .  S
C25          C26   1.528       .  S
C25          C31   1.532       .  S
C25          C29   1.530       .  S
C25         C641   1.462       .  S
C26          H33   1.087       .  S
C26          C27   1.363       .  D
C27          C28   1.549       .  S
C27         C633   1.482       .  S
C28          C32   1.544       .  S
C28          C30   1.539       .  S
C28          H34   1.110       .  S
C29          H35   1.087       .  S
C29          C30   1.360       .  D
C30         C656   1.442       .  S
C31          H36   1.084       .  S
C31          C32   1.372       .  D
C32         C637   1.492       .  S
C37          C38   1.531       .  S
C37          C43   1.531       .  S
C37          C41   1.531       .  S
C37         C644   1.461       .  S
C38          H45   1.084       .  S
C38          C39   1.370       .  D
C39          C40   1.538       .  S
C39         C625   1.484       .  S
C40          C44   1.545       .  S
C40          C42   1.537       .  S
C40          H46   1.109       .  S
C41          H47   1.087       .  S
C41          C42   1.361       .  D
C42         C629   1.443       .  S
C43          H48   1.087       .  S
C43          C44   1.364       .  D
C44         C621   1.480       .  S
C49          C50   1.537       .  S
C49          C55   1.535       .  S
C49          C53   1.537       .  S
C49         C620   1.475       .  S
C50          H57   1.084       .  S
C50          C51   1.371       .  D
C51          C52   1.538       .  S
C51         C609   1.485       .  S
C52          C56   1.544       .  S
C52          C54   1.534       .  S
C52          H58   1.109       .  S
C53          H59   1.086       .  S
C53          C54   1.364       .  D
C54         C632   1.444       .  S
C55          H60   1.086       .  S
C55          C56   1.366       .  D
C56         C613   1.489       .  S
C61          C62   1.532       .  S
C61          C67   1.535       .  S
C61          C65   1.534       .  S
C61         C617   1.475       .  S
C62          H69   1.087       .  S
C62          C63   1.366       .  D
C63          C64   1.550       .  S
C63         C605   1.492       .  S
C64          C68   1.545       .  S
C64          C66   1.538       .  S
C64          H70   1.109       .  S
C65          H71   1.087       .  S
C65          C66   1.363       .  D
C66         C668   1.447       .  S
C67          H72   1.084       .  S
C67          C68   1.372       .  D
C68         C601   1.493       .  S
In73         O75   2.235   1_655  S
In73         O76   2.258       .  S
In73         O84   2.255   1_655  S
In73         O78   2.250   1_655  S
In73         O80   2.248       .  S
In73         O81   2.258       .  S
In73         O82   2.242       .  S
In73         O85   2.231       .  S
C74          O80   1.261       .  A
C74          O82   1.259       .  A
C74         C593   1.434       .  S
O75          C83   1.258   1_455  A
O76          C83   1.260       .  A
C77          O84   1.259       .  A
C77          O78   1.259       .  A
C77         C596   1.439       .  S
C79          O81   1.261       .  A
C79          O85   1.260       .  A
C79         C597   1.475       .  S
C83         C591   1.435       .  S
In86         O88   2.248       .  S
In86         O89   2.249       .  S
In86         O97   2.254       .  S
In86         O91   2.246       .  S
In86         O93   2.245       .  S
In86         O94   2.260       .  S
In86         O95   2.249   1_565  S
In86         O98   2.240       .  S
C87          O93   1.258   1_545  A
C87          O95   1.259       .  A
C87         C594   1.434       .  S
O88          C96   1.260       .  A
O89          C96   1.259       .  A
C90          O97   1.259       .  A
C90          O91   1.258       .  A
C90         C583   1.436       .  S
C92          O94   1.260       .  A
C92          O98   1.258       .  A
C92         C585   1.437       .  S
C96         C587   1.473       .  S
In99        O101   2.237       .  S
In99        O102   2.267       .  S
In99        O110   2.260       .  S
In99        O104   2.252       .  S
In99        O106   2.245       .  S
In99        O107   2.252       .  S
In99        O108   2.248       .  S
In99        O111   2.257       .  S
C100        O106   1.261       .  A
C100        O108   1.260       .  A
C100        C579   1.436       .  S
O101        C109   1.258       .  A
O102        C109   1.261       .  A
C103        O110   1.259       .  A
C103        O104   1.258       .  A
C103        C581   1.440       .  S
C105        O107   1.260       .  A
C105        O111   1.260       .  A
C105        C638   1.477       .  S
C109        C578   1.438       .  S
In112       O114   2.242       .  S
In112       O115   2.250       .  S
In112       O123   2.258       .  S
In112       O117   2.243       .  S
In112       O119   2.254       .  S
In112       O120   2.250       .  S
In112       O121   2.237       .  S
In112       O124   2.235       .  S
C113        O119   1.261       .  A
C113        O121   1.258       .  A
C113        C576   1.435       .  S
O114        C122   1.259       .  A
O115        C122   1.259       .  A
C116        O123   1.259       .  A
C116        O117   1.259       .  A
C116        C574   1.436       .  S
C118        O120   1.260       .  A
C118        O124   1.259       .  A
C118        C571   1.433       .  S
C122        C626   1.471       .  S
In125       O127   2.233       .  S
In125       O128   2.263   1_655  S
In125       O136   2.261       .  S
In125       O130   2.249       .  S
In125       O132   2.251   1_655  S
In125       O133   2.262   1_655  S
In125       O134   2.243   1_655  S
In125       O137   2.246   1_655  S
C126        O132   1.260       .  A
C126        O134   1.259       .  A
C126        C575   1.435       .  S
O127        C135   1.257       .  A
O128        C135   1.261   1_455  A
C129        O136   1.260       .  A
C129        O130   1.259       .  A
C129        C569   1.440       .  S
C131        O133   1.262       .  A
C131        O137   1.259       .  A
C131        C614   1.478       .  S
C135        C592   1.435       .  S
In138       O140   2.249       .  S
In138       O141   2.260       .  S
In138       O149   2.262   1_565  S
In138       O143   2.244       .  S
In138       O145   2.243       .  S
In138       O146   2.268       .  S
In138       O147   2.256       .  S
In138       O150   2.237       .  S
C139        O145   1.258       .  A
C139        O147   1.259       .  A
C139        C580   1.435       .  S
O140        C148   1.259       .  A
O141        C148   1.260       .  A
C142        O149   1.261       .  A
C142        O143   1.258   1_545  A
C142        C570   1.439       .  S
C144        O146   1.261       .  A
C144        O150   1.257       .  A
C144        C586   1.437       .  S
C148        C650   1.478       .  S
In151       O153   2.237       .  S
In151       O154   2.267       .  S
In151       O162   2.265   1_565  S
In151       O156   2.238   1_565  S
In151       O158   2.244       .  S
In151       O159   2.258       .  S
In151       O160   2.249       .  S
In151       O163   2.247       .  S
C152        O158   1.259       .  A
C152        O160   1.260       .  A
C152        C567   1.435       .  S
O153        C161   1.257       .  A
O154        C161   1.261       .  A
C155        O162   1.260       .  A
C155        O156   1.257       .  A
C155        C573   1.436       .  S
C157        O159   1.260       .  A
C157        O163   1.260       .  A
C157        C661   1.477       .  S
C161        C566   1.438       .  S
In164       O166   2.246       .  S
In164       O167   2.270   1_655  S
In164       O175   2.258       .  S
In164       O169   2.248       .  S
In164       O171   2.249   1_655  S
In164       O172   2.273       .  S
In164       O173   2.242   1_655  S
In164       O176   2.237       .  S
C165        O171   1.262       .  A
C165        O173   1.259       .  A
C165        C568   1.436       .  S
O166        C174   1.258   1_655  A
O167        C174   1.264       .  A
C168        O175   1.261       .  A
C168        O169   1.260       .  A
C168        C582   1.440       .  S
C170        O172   1.264       .  A
C170        O176   1.258       .  A
C170        C564   1.443       .  S
C174        C606   1.481       .  S
In177       O179   2.227       .  S
In177       O180   2.267       .  S
In177       O188   2.257       .  S
In177       O182   2.232       .  S
In177       O184   2.240       .  S
In177       O185   2.253       .  S
In177       O186   2.226       .  S
In177       O189   2.236       .  S
C178        O184   1.262       .  A
C178        O186   1.258       .  A
C178        C557   1.427       .  S
O179        C187   1.258       .  A
O180        C187   1.264       .  A
C181        O188   1.262       .  A
C181        O182   1.259       .  A
C181        C584   1.435       .  S
C183        O185   1.265       .  A
C183        O189   1.258       .  A
C183        C559   1.474       .  S
C187        C577   1.437       .  S
In190       O192   2.237       .  S
In190       O193   2.262       .  S
In190       O201   2.266       .  S
In190       O195   2.240       .  S
In190       O197   2.245       .  S
In190       O198   2.257       .  S
In190       O199   2.243       .  S
In190       O202   2.238       .  S
C191        O197   1.259       .  A
C191        O199   1.259       .  A
C191        C551   1.433       .  S
O192        C200   1.260       .  A
O193        C200   1.260       .  A
C194        O201   1.261       .  A
C194        O195   1.257       .  A
C194        C595   1.438       .  S
C196        O198   1.260       .  A
C196        O202   1.257       .  A
C196        C572   1.433       .  S
C200        C553   1.477       .  S
In203       O205   2.233       .  S
In203       O206   2.263       .  S
In203       O214   2.251       .  S
In203       O208   2.235       .  S
In203       O210   2.249   1_565  S
In203       O211   2.249       .  S
In203       O212   2.240   1_565  S
In203       O215   2.240       .  S
C204        O210   1.260       .  A
C204        O212   1.259       .  A
C204        C552   1.433       .  S
O205        C213   1.258       .  A
O206        C213   1.262       .  A
C207        O214   1.260       .  A
C207        O208   1.260       .  A
C207        C545   1.433       .  S
C209        O211   1.263       .  A
C209        O215   1.259       .  A
C209        C547   1.472       .  S
C213        C565   1.438       .  S
In216       O218   2.239       .  S
In216       O219   2.270       .  S
In216       O227   2.258   1_655  S
In216       O221   2.227   1_655  S
In216       O223   2.229       .  S
In216       O224   2.280       .  S
In216       O225   2.238       .  S
In216       O228   2.234       .  S
C217        O223   1.259       .  A
C217        O225   1.261       .  A
C217        C558   1.427       .  S
O218        C226   1.258       .  A
O219        C226   1.266       .  A
C220        O227   1.261       .  A
C220        O221   1.257       .  A
C220        C546   1.433       .  S
C222        O224   1.264       .  A
C222        O228   1.256       .  A
C222        C563   1.443       .  S
C226        C541   1.479       .  S
C229        C230   1.542       .  S
C229        C235   1.537       .  S
C229        C233   1.534       .  S
C229        C540   1.473       .  S
C230        H237   1.085       .  S
C230        C231   1.373       .  D
C231        C232   1.534       .  S
C231        C530   1.486       .  S
C232        C236   1.535       .  S
C232        C234   1.531       .  S
C232        H238   1.112       .  S
C233        H239   1.087       .  S
C233        C234   1.360       .  D
C234        C533   1.440       .  S
C235        H240   1.084       .  S
C235        C236   1.370       .  D
C236        C598   1.483       .  S
C241        C242   1.531       .  S
C241        C247   1.529       .  S
C241        C245   1.536       .  S
C241        C537   1.473       .  S
C242        H249   1.087       .  S
C242        C243   1.367       .  D
C243        C244   1.552       .  S
C243        C542   1.491       .  S
C244        C248   1.551       .  S
C244        C246   1.539       .  S
C244        H250   1.105       .  S
C245        H251   1.086       .  S
C245        C246   1.365       .  D
C246        C525   1.449       .  S
C247        H252   1.087       .  S
C247        C248   1.365       .  D
C248        C521   1.489       .  S
C253        C254   1.535   1_545  S
C253        C259   1.533   1_545  S
C253        C257   1.532       .  S
C253        C517   1.469       .  S
C254        H261   1.084       .  S
C254        C255   1.372   1_565  D
C255        C256   1.538       .  S
C255        C588   1.486   1_545  S
C256        C260   1.544   1_545  S
C256        C258   1.534       .  S
C256        H262   1.109       .  S
C257        H263   1.087       .  S
C257        C258   1.360       .  D
C258        C536   1.440       .  S
C259        H264   1.086       .  S
C259        C260   1.366       .  D
C260        C514   1.482       .  S
C265        C266   1.533       .  S
C265        C271   1.528       .  S
C265        C269   1.534       .  S
C265        C509   1.467       .  S
C266        H273   1.084       .  S
C266        C267   1.372       .  D
C267        C268   1.541       .  S
C267        C505   1.489       .  S
C268        C272   1.548       .  S
C268        C270   1.541       .  S
C268        H274   1.110       .  S
C269        H275   1.087       .  S
C269        C270   1.364       .  D
C270        C528   1.449       .  S
C271        H276   1.087       .  S
C271        C272   1.361       .  D
C272        C560   1.482       .  S
C277        C278   1.534       .  S
C277        C283   1.532       .  S
C277        C281   1.536       .  S
C277        C520   1.469       .  S
C278        H285   1.084   1_545  S
C278        C279   1.371       .  D
C279        C280   1.538       .  S
C279        C497   1.486   1_545  S
C280        C284   1.544       .  S
C280        C282   1.533       .  S
C280        H286   1.109       .  S
C281        H287   1.086       .  S
C281        C282   1.363       .  D
C282        C501   1.442       .  S
C283        H288   1.087   1_545  S
C283        C284   1.365       .  D
C284        C548   1.482   1_545  S
C289        C290   1.538       .  S
C289        C295   1.535       .  S
C289        C293   1.532       .  S
C289        C512   1.468       .  S
C290        H297   1.085       .  S
C290        C291   1.372       .  D
C291        C292   1.538       .  S
C291        C554   1.485       .  S
C292        C296   1.536       .  S
C292        C294   1.534       .  S
C292        H298   1.112       .  S
C293        H299   1.087       .  S
C293        C294   1.359       .  D
C294        C504   1.442       .  S
C295        H300   1.084       .  S
C295        C296   1.370       .  D
C296        C494   1.484       .  S
In301       O303   2.251       .  S
In301       O304   2.253       .  S
In301       O312   2.262       .  S
In301       O306   2.235       .  S
In301       O308   2.233       .  S
In301       O309   2.264       .  S
In301       O310   2.240       .  S
In301       O313   2.236       .  S
C302        O308   1.258       .  A
C302        O310   1.260       .  A
C302        C489   1.427       .  S
O303        C311   1.259       .  A
O304        C311   1.260       .  A
C305        O312   1.260       .  A
C305        O306   1.256       .  A
C305        C491   1.435       .  S
C307        O309   1.260       .  A
C307        O313   1.257       .  A
C307        C487   1.435       .  S
C311        C506   1.475       .  S
In314       O316   2.230       .  S
In314       O317   2.269       .  S
In314       O325   2.255       .  S
In314       O319   2.240       .  S
In314       O321   2.250       .  S
In314       O322   2.250       .  S
In314       O323   2.241   1_565  S
In314       O326   2.241       .  S
C315        O321   1.261   1_545  A
C315        O323   1.259       .  A
C315        C486   1.435       .  S
O316        C324   1.258       .  A
O317        C324   1.262       .  A
C318        O325   1.260       .  A
C318        O319   1.259       .  A
C318        C492   1.436       .  S
C320        O322   1.263       .  A
C320        O326   1.258       .  A
C320        C513   1.472       .  S
C324        C483   1.438       .  S
In327       O329   2.246   1_455  S
In327       O330   2.266       .  S
In327       O338   2.263       .  S
In327       O332   2.255       .  S
In327       O334   2.249   1_455  S
In327       O335   2.257   1_455  S
In327       O336   2.251   1_455  S
In327       O339   2.236       .  S
C328        O334   1.259       .  A
C328        O336   1.259       .  A
C328        C485   1.435       .  S
O329        C337   1.259       .  A
O330        C337   1.258   1_455  A
C331        O338   1.259       .  A
C331        O332   1.257       .  A
C331        C481   1.441       .  S
C333        O335   1.260   1_455  A
C333        O339   1.258       .  A
C333        C480   1.434       .  S
C337        C529   1.478       .  S
In340       O342   2.235       .  S
In340       O343   2.256       .  S
In340       O351   2.260       .  S
In340       O345   2.252       .  S
In340       O347   2.247       .  S
In340       O348   2.252       .  S
In340       O349   2.242       .  S
In340       O352   2.239       .  S
C341        O347   1.261       .  A
C341        O349   1.258       .  A
C341        C477   1.433       .  S
O342        C350   1.259       .  A
O343        C350   1.261       .  A
C344        O351   1.259       .  A
C344        O345   1.259       .  A
C344        C482   1.441       .  S
C346        O348   1.260       .  A
C346        O352   1.260       .  A
C346        C493   1.473       .  S
C350        C475   1.435       .  S
In353       O355   2.245       .  S
In353       O356   2.249       .  S
In353       O364   2.259       .  S
In353       O358   2.244       .  S
In353       O360   2.243       .  S
In353       O361   2.268       .  S
In353       O362   2.249   1_565  S
In353       O365   2.238       .  S
C354        O360   1.258   1_545  A
C354        O362   1.259       .  A
C354        C478   1.433       .  S
O355        C363   1.260       .  A
O356        C363   1.260       .  A
C357        O364   1.260       .  A
C357        O358   1.258       .  A
C357        C474   1.437       .  S
C359        O361   1.260       .  A
C359        O365   1.258       .  A
C359        C471   1.438       .  S
C363        C498   1.473       .  S
In366       O368   2.240   1_655  S
In366       O369   2.270       .  S
In366       O377   2.256   1_655  S
In366       O371   2.242   1_655  S
In366       O373   2.241       .  S
In366       O374   2.261       .  S
In366       O375   2.230       .  S
In366       O378   2.247       .  S
C367        O373   1.261       .  A
C367        O375   1.259       .  A
C367        C490   1.427       .  S
O368        C376   1.258   1_455  A
O369        C376   1.263       .  A
C370        O377   1.260       .  A
C370        O371   1.259       .  A
C370        C473   1.437       .  S
C372        O374   1.264       .  A
C372        O378   1.258       .  A
C372        C522   1.479       .  S
C376        C469   1.443       .  S
In379       O381   2.241       .  S
In379       O382   2.281       .  S
In379       O390   2.261       .  S
In379       O384   2.229       .  S
In379       O386   2.231   1_655  S
In379       O387   2.263       .  S
In379       O388   2.247   1_655  S
In379       O391   2.253   1_655  S
C380        O386   1.258       .  A
C380        O388   1.260       .  A
C380        C465   1.430       .  S
O381        C389   1.256       .  A
O382        C389   1.262       .  A
C383        O390   1.261       .  A
C383        O384   1.256       .  A
C383        C467   1.433       .  S
C385        O387   1.262   1_455  A
C385        O391   1.259       .  A
C385        C602   1.481       .  S
C389        C470   1.443       .  S
In392       O394   2.234       .  S
In392       O395   2.254       .  S
In392       O403   2.251       .  S
In392       O397   2.232       .  S
In392       O399   2.246       .  S
In392       O400   2.262       .  S
In392       O401   2.230       .  S
In392       O404   2.226       .  S
C393        O399   1.261       .  A
C393        O401   1.259       .  A
C393        C464   1.431       .  S
O394        C402   1.258       .  A
O395        C402   1.264       .  A
C396        O403   1.260       .  A
C396        O397   1.259       .  A
C396        C468   1.433       .  S
C398        O400   1.263       .  A
C398        O404   1.258       .  A
C398        C488   1.435       .  S
C402        C634   1.473       .  S
In405       O407   2.238       .  S
In405       O408   2.260       .  S
In405       O416   2.254   1_565  S
In405       O410   2.243       .  S
In405       O412   2.240       .  S
In405       O413   2.269       .  S
In405       O414   2.239       .  S
In405       O417   2.229       .  S
C406        O412   1.261       .  A
C406        O414   1.259       .  A
C406        C466   1.430       .  S
O407        C415   1.258       .  A
O408        C415   1.264       .  A
C409        O416   1.261       .  A
C409        O410   1.259   1_545  A
C409        C461   1.438       .  S
C411        O413   1.263       .  A
C411        O417   1.257       .  A
C411        C472   1.438       .  S
C415        C657   1.474       .  S
In418       O420   2.223       .  S
In418       O421   2.263       .  S
In418       O429   2.254       .  S
In418       O423   2.239       .  S
In418       O425   2.244       .  S
In418       O426   2.251       .  S
In418       O427   2.239       .  S
In418       O430   2.234       .  S
C419        O425   1.260       .  A
C419        O427   1.258       .  A
C419        C459   1.431       .  S
O420        C428   1.257       .  A
O421        C428   1.262       .  A
C422        O429   1.261       .  A
C422        O423   1.259       .  A
C422        C462   1.437       .  S
C424        O426   1.263       .  A
C424        O430   1.258       .  A
C424        C622   1.469       .  S
C428        C476   1.434       .  S
In431       O433   2.238   1_655  S
In431       O434   2.262       .  S
In431       O442   2.258       .  S
In431       O436   2.238       .  S
In431       O438   2.244   1_655  S
In431       O439   2.259   1_655  S
In431       O440   2.243   1_655  S
In431       O443   2.235       .  S
C432        O438   1.258       .  A
C432        O440   1.259       .  A
C432        C460   1.431       .  S
O433        C441   1.259       .  A
O434        C441   1.260   1_655  A
C435        O442   1.260       .  A
C435        O436   1.257       .  A
C435        C458   1.435       .  S
C437        O439   1.260   1_655  A
C437        O443   1.257       .  A
C437        C479   1.434       .  S
C441        C610   1.476       .  S
In444       O446   2.232       .  S
In444       O447   2.270       .  S
In444       O455   2.258   1_565  S
In444       O449   2.232   1_565  S
In444       O451   2.246       .  S
In444       O452   2.266       .  S
In444       O453   2.237       .  S
In444       O456   2.233       .  S
C445        O451   1.260       .  A
C445        O453   1.260       .  A
C445        C463   1.431       .  S
O446        C454   1.258       .  A
O447        C454   1.263       .  A
C448        O455   1.261       .  A
C448        O449   1.258       .  A
C448        C457   1.435       .  S
C450        O452   1.264       .  A
C450        O456   1.257       .  A
C450        C646   1.474       .  S
C454        C484   1.439       .  S
C457        C458   1.205       .  T
C459        C460   1.203       .  T
C461        C462   1.207       .  T
C463        C464   1.203       .  T
C465        C466   1.203       .  T
C467        C468   1.204       .  T
C469        C470   1.210       .  T
C471        C472   1.207       .  T
C473        C474   1.207       .  T
C475        C476   1.205       .  T
C477        C478   1.205       .  T
C479        C480   1.205   1_655  T
C481        C482   1.209       .  T
C483        C484   1.208       .  T
C485        C486   1.206       .  T
C487        C488   1.206       .  T
C489        C490   1.201       .  T
C491        C492   1.206       .  T
C493        H495   1.084       .  S
C493        C494   1.344       .  D
C494        H496   1.086       .  S
C497        H499   1.086       .  S
C497        C498   1.345       .  D
C498        H500   1.084       .  S
C501        C502   1.206       .  T
C502        C503   1.413       .  S
C503        C504   1.206       .  T
C505        H507   1.086       .  S
C505        C506   1.347       .  D
C506        H508   1.083       .  S
C509        C510   1.205       .  T
C510        C511   1.411       .  S
C511        C512   1.206       .  T
C513        H515   1.084       .  S
C513        C514   1.342       .  D
C514        H516   1.087       .  S
C517        C518   1.206       .  T
C518        C519   1.413       .  S
C519        C520   1.206       .  T
C521        H523   1.088       .  S
C521        C522   1.342       .  D
C522        H524   1.084       .  S
C525        C526   1.210       .  T
C526        C527   1.419       .  S
C527        C528   1.210       .  T
C529        H531   1.084       .  S
C529        C530   1.344       .  D
C530        H532   1.087       .  S
C533        C534   1.205       .  T
C534        C535   1.411       .  S
C535        C536   1.205       .  T
C537        C538   1.209       .  T
C538        C539   1.416       .  S
C539        C540   1.209       .  T
C541        H543   1.083       .  S
C541        C542   1.342       .  D
C542        H544   1.087       .  S
C545        C546   1.204       .  T
C547        H549   1.085       .  S
C547        C548   1.341       .  D
C548        H550   1.087       .  S
C551        C552   1.204       .  T
C553        H555   1.084       .  S
C553        C554   1.345       .  D
C554        H556   1.086       .  S
C557        C558   1.201       .  T
C559        H561   1.085       .  S
C559        C560   1.339       .  D
C560        H562   1.087       .  S
C563        C564   1.211   1_556  T
C565        C566   1.207   1_556  T
C567        C568   1.206       .  T
C569        C570   1.208       .  T
C571        C572   1.205   1_554  T
C573        C574   1.206       .  T
C575        C576   1.206       .  T
C577        C578   1.207   1_556  T
C579        C580   1.206       .  T
C581        C582   1.209       .  T
C583        C584   1.206       .  T
C585        C586   1.207   1_556  T
C587        H589   1.083       .  S
C587        C588   1.344       .  D
C588        H590   1.086       .  S
C591        C592   1.205   1_556  T
C593        C594   1.205       .  T
C595        C596   1.208       .  T
C597        H599   1.084       .  S
C597        C598   1.344       .  D
C598        H600   1.087       .  S
C601        H603   1.086       .  S
C601        C602   1.350       .  D
C602        H604   1.084       .  S
C605        H607   1.087       .  S
C605        C606   1.343       .  D
C606        H608   1.084       .  S
C609        H611   1.086       .  S
C609        C610   1.345       .  D
C610        H612   1.084       .  S
C613        H615   1.087       .  S
C613        C614   1.344       .  D
C614        H616   1.084       .  S
C617        C618   1.210       .  T
C618        C619   1.418       .  S
C619        C620   1.210       .  T
C621        H623   1.087       .  S
C621        C622   1.340       .  D
C622        H624   1.085       .  S
C625        H627   1.086       .  S
C625        C626   1.345       .  D
C626        H628   1.083       .  S
C629        C630   1.207       .  T
C630        C631   1.414       .  S
C631        C632   1.207       .  T
C633        H635   1.087       .  S
C633        C634   1.339       .  D
C634        H636   1.085       .  S
C637        H639   1.086       .  S
C637        C638   1.348       .  D
C638        H640   1.082       .  S
C641        C642   1.202       .  T
C642        C643   1.405       .  S
C643        C644   1.202       .  T
C645        H647   1.087       .  S
C645        C646   1.341       .  D
C646        H648   1.084       .  S
C649        H651   1.086       .  S
C649        C650   1.347       .  D
C650        H652   1.083       .  S
C653        C654   1.206       .  T
C654        C655   1.413       .  S
C655        C656   1.206       .  T
C657        H659   1.084       .  S
C657        C658   1.341       .  D
C658        H660   1.087       .  S
C661        H663   1.084       .  S
C661        C662   1.346       .  D
C662        H664   1.086       .  S
C665        C666   1.209       .  T
C666        C667   1.417       .  S
C667        C668   1.209       .  T
C669        C670   1.207       .  T
C670        C671   1.414       .  S
C671        C672   1.207       .  T
