geometry optimzed in LAMMPS
_audit_creation_date              2020-11-30 
_audit_creation_method            'lammps2cif' 
_symmetry_space_group_name_H-M    'P1' 
_symmetry_Int_Tables_number       1 
_symmetry_cell_setting            triclinic 
loop_ 
_symmetry_equiv_pos_as_xyz 
  x,y,z 
_cell_length_a                    35.98707144499751 
_cell_length_b                    37.858368359981746 
_cell_length_c                    30.769452161897835 
_cell_angle_alpha                 89.66881409717304 
_cell_angle_beta                  89.99393787034955 
_cell_angle_gamma                 118.34724021107743 
loop_ 
_atom_site_label 
_atom_site_type_symbol 
_atom_site_fract_x 
_atom_site_fract_y 
_atom_site_fract_z 
_atom_site_charge 
N1          N  0.87446848  0.65958573  0.41593787    -0.07300
N2          N  0.91204923  0.67854727  0.43319460    -0.59420
N3          N  0.80524253  0.56398975  0.45828751    -0.06980
N4          N  0.80125352  0.55539914  0.50038061    -0.61550
N5          N  0.84267382  0.57134474  0.44406838    -0.06580
N6          N  0.86490407  0.56865376  0.47773041    -0.59400
N7          N  0.84486117  0.65153788  0.44553983    -0.06260
N8          N  0.86311386  0.65970666  0.48445980    -0.61900
C9          C  0.90524416  0.67665145  0.47602617     0.94870
C10         C  0.83811424  0.55750795  0.51280403     0.94650
N11         N  0.70066304  0.54394922  0.37673659    -0.07490
N12         N  0.66767542  0.50820903  0.37376559    -0.60000
N13         N  0.75098447  0.63822995  0.41293008    -0.05610
N14         N  0.73761628  0.65496396  0.44214152    -0.61250
N15         N  0.72988387  0.63290292  0.37636076    -0.07520
N16         N  0.70191744  0.64613715  0.38069998    -0.60270
N17         N  0.71895638  0.54825054  0.41515139    -0.05250
N18         N  0.69892784  0.51519783  0.43858737    -0.61340
Mn19       Mn  0.77941924  0.60080784  0.43243634     1.18440
C20         C  0.66704477  0.49103848  0.41247194     0.96960
C21         C  0.70723045  0.66001540  0.42191544     0.97620
N22         N  0.85439198  0.55559770  0.34031860    -0.07540
N23         N  0.85983255  0.52485300  0.35164932    -0.63850
N24         N  0.87790890  0.64060064  0.28575547    -0.06340
N25         N  0.90445359  0.65918862  0.25376717    -0.64520
N26         N  0.89829183  0.64507319  0.32239821    -0.07040
N27         N  0.93944221  0.66676241  0.31555661    -0.64110
N28         N  0.83522990  0.54938688  0.30223032    -0.05940
N29         N  0.82667128  0.51353129  0.28753500    -0.64800
Mn30       Mn  0.86765942  0.60774252  0.38032235     1.10660
C31         C  0.84290426  0.49912976  0.31842803     0.98180
C32         C  0.94278579  0.67563051  0.27251672     0.98250
N33         N  0.76019122  0.63640028  0.27829734    -0.07050
N34         N  0.74282577  0.65551678  0.25850629    -0.62430
N35         N  0.75346343  0.54481838  0.25706620    -0.06370
N36         N  0.75060409  0.53352420  0.21610855    -0.59160
N37         N  0.72052586  0.54910788  0.26819800    -0.07680
N38         N  0.69677279  0.54366026  0.23266674    -0.61990
N39         N  0.79025568  0.63566971  0.25439003    -0.06670
N40         N  0.79298339  0.65429597  0.21675084    -0.59180
Mn41       Mn  0.72696727  0.59017410  0.32550594     1.20190
Mn42       Mn  0.81482785  0.59264287  0.27494008     1.10090
Cl43       Cl  0.79698249  0.59779880  0.35317383    -0.87150
C44         C  0.76342579  0.66703629  0.22046046     0.95180
C45         C  0.71566879  0.53319946  0.20021871     0.94980
N46         N  0.74667559  0.65782953  0.82865570    -0.07300
N47         N  0.73595880  0.68681041  0.82378783    -0.59420
N48         N  0.72878243  0.56371614  0.80599716    -0.06980
N49         N  0.70326808  0.52864153  0.78825336    -0.61550
N50         N  0.71379614  0.56662348  0.84434084    -0.06580
N51         N  0.67851331  0.53383375  0.85326061    -0.59400
N52         N  0.76243389  0.65323108  0.79203112    -0.06260
N53         N  0.76287551  0.67779873  0.76201923    -0.61900
C54         C  0.74641568  0.69850470  0.78156037     0.94870
C55         C  0.67230147  0.51020304  0.81842939     0.94650
N56         N  0.85572778  0.58956664  0.77062087    -0.07490
N57         N  0.87597833  0.58492786  0.73629181    -0.60000
N58         N  0.84872376  0.66858048  0.75866843    -0.05610
N59         N  0.85716457  0.69373730  0.72542710    -0.61250
N60         N  0.88382738  0.67707800  0.77965485    -0.07520
N61         N  0.91637986  0.70746860  0.76175162    -0.60270
N62         N  0.81618593  0.57767212  0.75939329    -0.05250
N63         N  0.80919106  0.56381541  0.71910090    -0.61340
Mn64       Mn  0.78799610  0.61466639  0.77914649     1.18440
C65         C  0.84619539  0.56771239  0.70439548     0.96960
C66         C  0.89954000  0.71800661  0.72833880     0.97620
N67         N  0.74321228  0.58476936  0.94660478    -0.07540
N68         N  0.71412138  0.56755582  0.97795335    -0.63850
N69         N  0.81562811  0.68077921  0.94303909    -0.06340
N70         N  0.83022149  0.71474025  0.96529687    -0.64520
N71         N  0.78000250  0.67337901  0.92392998    -0.07040
N72         N  0.76934872  0.70124731  0.93249239    -0.64110
N73         N  0.77978499  0.58980235  0.96094642    -0.05940
N74         N  0.77623149  0.57562309  0.00095485    -0.64800
Mn75       Mn  0.74430394  0.62012374  0.88585507     1.10660
C76         C  0.73517529  0.56113631  0.01163602     0.98180
C77         C  0.80077227  0.72704032  0.95798607     0.98250
N78         N  0.91898000  0.68410007  0.87643200    -0.07050
N79         N  0.95918488  0.71265374  0.87907580    -0.62430
N80         N  0.85944072  0.59066709  0.91519680    -0.06370
N81         N  0.84288240  0.55413897  0.93207914    -0.59160
N82         N  0.87654403  0.59124507  0.87676733    -0.07680
N83         N  0.87189389  0.55553370  0.86757933    -0.61990
N84         N  0.89944658  0.68327945  0.91275355    -0.06670
N85         N  0.92481635  0.71060954  0.93996488    -0.59180
Mn86       Mn  0.88541527  0.63567292  0.82632302     1.20190
Mn87       Mn  0.83944686  0.63615116  0.93356115     1.10090
Cl88       Cl  0.81406654  0.62569233  0.85630880    -0.87150
C89         C  0.96205524  0.72889003  0.91931405     0.95180
C90         C  0.85114933  0.53282647  0.90216566     0.94980
N91         N  0.16747563  0.88402583  0.04011864    -0.07300
N92         N  0.14341831  0.87123880  0.00517717    -0.59420
N93         N  0.21962668  0.93447821  0.13044705    -0.06980
N94         N  0.23462755  0.95976970  0.16315588    -0.61550
N95         N  0.24236005  0.95031122  0.09541948    -0.06580
N96         N  0.27341771  0.98673437  0.10373664    -0.59400
N97         N  0.14538337  0.86683456  0.07517612    -0.06260
N98         N  0.10587682  0.84170750  0.06446425    -0.61900
C99         C  0.10484039  0.84498438  0.02050295     0.94870
C100        C  0.26774010  0.99261555  0.14609897     0.94650
N101        N  0.23257447  0.84789696  0.19806132    -0.07490
N102        N  0.25259721  0.85444051  0.23536951    -0.60000
N103        N  0.14073067  0.80482005  0.14476121    -0.05610
N104        N  0.10043219  0.78653644  0.15500532    -0.61250
N105        N  0.15748891  0.78094983  0.15105978    -0.07520
N106        N  0.12859953  0.74593658  0.16674804    -0.60270
N107        N  0.21432734  0.87065880  0.19436950    -0.05250
N108        N  0.22171592  0.89324616  0.22901920    -0.61340
Mn109      Mn  0.17872957  0.86937954  0.13645601     1.18440
C110        C  0.24595002  0.88307752  0.25427921     0.96960
C111        C  0.09299974  0.74976157  0.16798863     0.97620
N112        N  0.30417103  0.93542889  0.03963660    -0.07540
N113        N  0.33105456  0.97381699  0.03586120    -0.63850
N114        N  0.24685301  0.84565162  0.98892384    -0.06340
N115        N  0.23607821  0.82489101  0.95212283    -0.64520
N116        N  0.23148736  0.87101097  0.98912165    -0.07040
N117        N  0.20993132  0.86777626  0.95398110    -0.64110
N118        N  0.32348877  0.91336728  0.03941916    -0.05940
N119        N  0.36493762  0.93742139  0.03489619    -0.64800
Mn120      Mn  0.23662023  0.91119144  0.04060513     1.10660
C121        C  0.36896108  0.97522844  0.03347891     0.98180
C122        C  0.21249648  0.83914624  0.93097444     0.98250
N123        N  0.22308667  0.76417403  0.09546958    -0.07050
N124        N  0.21016869  0.72546977  0.10142180    -0.62430
N125        N  0.31686162  0.84662046  0.10738892    -0.06370
N126        N  0.35743271  0.85896335  0.11263532    -0.59160
N127        N  0.29621653  0.83138894  0.14392456    -0.07680
N128        N  0.32244179  0.83263975  0.17468432    -0.61990
N129        N  0.24526229  0.77725210  0.05915052    -0.06670
N130        N  0.24823055  0.74687738  0.04062232    -0.59180
Mn131      Mn  0.22696624  0.80524737  0.14769737     1.20190
Mn132      Mn  0.28412893  0.84521594  0.04694540     1.10090
Cl133      Cl  0.23148119  0.85724858  0.09267841    -0.87150
C134        C  0.22521330  0.71443290  0.06691391     0.95180
C135        C  0.36056778  0.85071234  0.15481265     0.94980
N136        N  0.12729300  0.76609335  0.53173888    -0.07300
N137        N  0.09933933  0.72723364  0.53438097    -0.59420
N138        N  0.18235736  0.85872157  0.48542498    -0.06980
N139        N  0.19405573  0.88296988  0.45146225    -0.61550
N140        N  0.20480916  0.83974598  0.48798946    -0.06580
N141        N  0.23242319  0.85088101  0.45597675    -0.59400
N142        N  0.10716136  0.78721969  0.52790877    -0.06260
N143        N  0.06625715  0.76416269  0.52770558    -0.61900
C144        C  0.06136785  0.72698306  0.53171885     0.94870
C145        C  0.22558072  0.87806107  0.43356590     0.94650
N146        N  0.17737081  0.93121106  0.58178422    -0.07490
N147        N  0.19222798  0.97051936  0.57898309    -0.60000
N148        N  0.09020416  0.84341781  0.58636656    -0.05610
N149        N  0.04861871  0.82284265  0.58622571    -0.61250
N150        N  0.10378003  0.85866708  0.62491277    -0.07520
N151        N  0.07185670  0.84925084  0.65175534    -0.60270
N152        N  0.16322901  0.91468804  0.54381973    -0.05250
N153        N  0.16708246  0.94163632  0.51462456    -0.61340
Mn154      Mn  0.13529980  0.85092747  0.53449977     1.18440
C155        C  0.18472861  0.97619329  0.53694013     0.96960
C156        C  0.03754767  0.82757950  0.62696000     0.97620
N157        N  0.26750083  0.83295454  0.55544766    -0.07540
N158        N  0.29907481  0.83188084  0.53415943    -0.63850
N159        N  0.20818010  0.77783715  0.63517387    -0.06340
N160        N  0.21023018  0.75094378  0.66118138    -0.64520
N161        N  0.19200017  0.76170787  0.59753824    -0.07040
N162        N  0.18222705  0.72357319  0.59714154    -0.64110
N163        N  0.28093623  0.85052708  0.59338503    -0.05940
N164        N  0.32133824  0.86131057  0.59855070    -0.64800
Mn165      Mn  0.19766574  0.79900408  0.54167006     1.10660
C166        C  0.33263033  0.85008461  0.56131299     0.98180
C167        C  0.19302039  0.71711896  0.63720072     0.98250
N168        N  0.16581120  0.85147703  0.69343114    -0.07050
N169        N  0.14692711  0.84664127  0.73150721    -0.62430
N170        N  0.26128882  0.90793155  0.65878700    -0.06370
N171        N  0.29063419  0.92943655  0.68772889    -0.59160
N172        N  0.23803282  0.92554511  0.65060483    -0.07680
N173        N  0.25249045  0.95966126  0.67116186    -0.61990
N174        N  0.18857473  0.83271062  0.69380253    -0.06670
N175        N  0.18520282  0.81447878  0.73110376    -0.59180
Mn176      Mn  0.17120966  0.89229867  0.63833999     1.20190
Mn177      Mn  0.23564819  0.84276743  0.64550275     1.10090
Cl178      Cl  0.18530596  0.84648660  0.58993500    -0.87150
C179        C  0.15906858  0.82307535  0.75451684     0.95180
C180        C  0.28513148  0.96212534  0.69423012     0.94980
N181        N  0.23480736  0.51480548  0.11955792    -0.07300
N182        N  0.24951296  0.55337076  0.11036843    -0.59420
N183        N  0.18312484  0.44294307  0.19489501    -0.06980
N184        N  0.16382389  0.43212099  0.23327359    -0.61550
N185        N  0.22403361  0.46314515  0.20058225    -0.06580
N186        N  0.23368590  0.46699097  0.24191603    -0.59400
N187        N  0.19409805  0.49444284  0.11045469    -0.06260
N188        N  0.18080037  0.51948261  0.09518878    -0.61900
C189        C  0.21580782  0.55640821  0.09497544     0.94870
C190        C  0.19626510  0.44755716  0.26221555     0.94650
N191        N  0.13764748  0.33777868  0.12394451    -0.07490
N192        N  0.11634822  0.30152933  0.14203592    -0.60000
N193        N  0.13159182  0.40686999  0.06065080    -0.05610
N194        N  0.09540712  0.40132685  0.04302885    -0.61250
N195        N  0.14517363  0.38540000  0.03898640    -0.07520
N196        N  0.12106457  0.36767254  0.00558500    -0.60270
N197        N  0.12946626  0.36355504  0.14507995    -0.05250
N198        N  0.10351536  0.34582811  0.17785545    -0.61340
Mn199      Mn  0.15825829  0.42770409  0.12746765     1.18440
C200        C  0.09560494  0.30728359  0.17610420     0.96960
C201        C  0.09014426  0.37753538  0.00779672     0.97620
N202        N  0.29830773  0.44825333  0.17671771    -0.07540
N203        N  0.29085818  0.43226781  0.21642589    -0.63850
N204        N  0.32801721  0.48772775  0.07400910    -0.06340
N205        N  0.36222106  0.51147752  0.05078078    -0.64520
N206        N  0.31744963  0.50979722  0.09854091    -0.07040
N207        N  0.34311287  0.54834880  0.09219638    -0.64110
N208        N  0.30911075  0.42684222  0.15083687    -0.05940
N209        N  0.30953987  0.39696544  0.17253589    -0.64800
Mn210      Mn  0.26969438  0.48507581  0.14925676     1.10660
C211        C  0.29826097  0.40045308  0.21328330     0.98180
C212        C  0.37075629  0.54940104  0.06204921     0.98250
N213        N  0.22666875  0.38646552  0.01119124    -0.07050
N214        N  0.21668684  0.38589420  0.97000459    -0.62430
N215        N  0.26082212  0.35323142  0.08854513    -0.06370
N216        N  0.27779649  0.32987686  0.07858912    -0.59160
N217        N  0.21937470  0.33197532  0.08731102    -0.07680
N218        N  0.20797677  0.29445122  0.07676317    -0.61990
N219        N  0.26741837  0.41027325  0.01668859    -0.06670
N220        N  0.28605271  0.42607151  0.97938176    -0.59180
Mn221      Mn  0.18197721  0.35987827  0.06610004     1.20190
Mn222      Mn  0.29318005  0.42047997  0.08199516     1.10090
Cl223      Cl  0.22569018  0.42365331  0.10560653    -0.87150
C224        C  0.25396166  0.41008559  0.95060015     0.95180
C225        C  0.24440701  0.29304806  0.07175466     0.94980
N226        N  0.14465142  0.42551844  0.67039205    -0.07300
N227        N  0.11677628  0.41417836  0.70225737    -0.59420
N228        N  0.14347444  0.39867301  0.56649197    -0.06980
N229        N  0.11145395  0.38303254  0.54020067    -0.61550
N230        N  0.14162158  0.37270745  0.59621958    -0.06580
N231        N  0.10518435  0.33899828  0.59172100    -0.59400
N232        N  0.13781094  0.44779272  0.64195462    -0.06260
N233        N  0.10418149  0.45115759  0.65369346    -0.61900
C234        C  0.09200776  0.43077992  0.69198350     0.94870
C235        C  0.08721742  0.34634502  0.55600695     0.94650
N236        N  0.23920277  0.49246921  0.50691230    -0.07490
N237        N  0.24850440  0.49103714  0.46566276    -0.60000
N238        N  0.20074181  0.52510466  0.58919607    -0.05610
N239        N  0.18370771  0.54548048  0.60692259    -0.61250
N240        N  0.24145390  0.54790434  0.58293699    -0.07520
N241        N  0.25304277  0.58466064  0.59681193    -0.60270
N242        N  0.19833448  0.47179331  0.51307909    -0.05250
N243        N  0.17877338  0.45586275  0.47637157    -0.61340
Mn244      Mn  0.16996591  0.46141918  0.57755746     1.18440
C245        C  0.21039274  0.46798967  0.44705230     0.96960
C246        C  0.21653039  0.58254681  0.61167021     0.97620
N247        N  0.22684660  0.37182503  0.64119198    -0.07540
N248        N  0.22133715  0.33648327  0.65532946    -0.63850
N249        N  0.26666882  0.45078270  0.70491740    -0.06340
N250        N  0.28478254  0.46261845  0.74311946    -0.64520
N251        N  0.22566904  0.42778556  0.70950217    -0.07040
N252        N  0.21498646  0.42387771  0.75081978    -0.64110
N253        N  0.26746057  0.39562048  0.63404356    -0.05940
N254        N  0.28921130  0.37639734  0.64085920    -0.64800
Mn255      Mn  0.18420838  0.39813502  0.65446056     1.10660
C256        C  0.26049679  0.33956702  0.65391120     0.98180
C257        C  0.25201061  0.44619519  0.77125092     0.98250
N258        N  0.32107939  0.54772598  0.61884993    -0.07050
N259        N  0.34403706  0.58622153  0.62710392    -0.62430
N260        N  0.32532678  0.46896151  0.57677335    -0.06370
N261        N  0.34399440  0.44922528  0.56091175    -0.59160
N262        N  0.31877070  0.48968967  0.54610208    -0.07680
N263        N  0.33265514  0.48385458  0.50826017    -0.61990
N264        N  0.32742786  0.52601159  0.64832971    -0.06670
N265        N  0.35579199  0.54939408  0.67688880    -0.59180
Mn266      Mn  0.28119026  0.52077608  0.56222171     1.20190
Mn267      Mn  0.29752164  0.46061476  0.64146798     1.10090
Cl268      Cl  0.23321095  0.46000416  0.60888512    -0.87150
C269        C  0.36519337  0.58688781  0.66355560     0.95180
C270        C  0.34926738  0.45924364  0.51845240     0.94980
N271        N  0.37883667  0.28870658  0.41688254    -0.07300
N272        N  0.36774548  0.30750212  0.44577917    -0.59420
N273        N  0.34736570  0.26639176  0.31410886    -0.06980
N274        N  0.33252666  0.28504110  0.28931572    -0.61550
N275        N  0.31960824  0.24464637  0.34425422    -0.06580
N276        N  0.28582015  0.25011217  0.34091820    -0.59400
N277        N  0.40442526  0.31417669  0.38778125    -0.06260
N278        N  0.41103929  0.35095707  0.39661782    -0.61900
C279        C  0.38805941  0.34631412  0.43316710     0.94870
C280        C  0.29418991  0.27466998  0.30566156     0.94650
N281        N  0.44261405  0.24850949  0.25891730    -0.07490
N282        N  0.45022466  0.24362664  0.21832170    -0.60000
N283        N  0.48089033  0.31422218  0.33907482    -0.05610
N284        N  0.50432620  0.34730806  0.36037103    -0.61250
N285        N  0.49987125  0.29196869  0.33613956    -0.07520
N286        N  0.53694455  0.30977550  0.35570326    -0.60270
N287        N  0.42439714  0.27129409  0.26151256    -0.05250
N288        N  0.41921144  0.28260215  0.22226236    -0.61340
Mn289      Mn  0.41467514  0.29199944  0.32476007     1.18440
C290        C  0.43533208  0.26477343  0.19578977     0.96960
C291        C  0.53906950  0.34428578  0.37050579     0.97620
N292        N  0.30538824  0.15980300  0.39167034    -0.07540
N293        N  0.26815047  0.13759223  0.41019245    -0.63850
N294        N  0.38785085  0.18575733  0.45524896    -0.06340
N295        N  0.39811800  0.17733545  0.49360606    -0.64520
N296        N  0.36922281  0.20826482  0.45954240    -0.07040
N297        N  0.36630967  0.21529152  0.50101361    -0.64110
N298        N  0.32425363  0.13766539  0.38530171    -0.05940
N299        N  0.29942903  0.10043047  0.39763497    -0.64800
Mn300      Mn  0.34247720  0.22485987  0.40312874     1.10660
C301        C  0.26478047  0.10058637  0.41367272     0.98180
C302        C  0.38461021  0.19599724  0.52196200     0.98250
N303        N  0.48677428  0.21060720  0.37127644    -0.07050
N304        N  0.52607194  0.21958662  0.37979043    -0.62430
N305        N  0.39676260  0.14076894  0.32637489    -0.06370
N306        N  0.37118278  0.10600646  0.30853310    -0.59160
N307        N  0.42300695  0.16560342  0.29717001    -0.07680
N308        N  0.41541914  0.14815088  0.25860378    -0.61990
N309        N  0.46092637  0.18495611  0.39984367    -0.06670
N310        N  0.48217436  0.17517792  0.42835858    -0.59180
Mn311      Mn  0.46423520  0.22929134  0.31489795     1.20190
Mn312      Mn  0.39244208  0.16155373  0.39196286     1.10090
Cl313      Cl  0.40307214  0.22675045  0.35855625    -0.87150
C314        C  0.52295203  0.19777694  0.41571922     0.95180
C315        C  0.38346960  0.11060825  0.26641099     0.94980
N316        N  0.49809867  0.29550160  0.86176798    -0.07300
N317        N  0.53512787  0.32402246  0.84840370    -0.59420
N318        N  0.43535047  0.26764954  0.94547667    -0.06980
N319        N  0.42784480  0.27815753  0.98379565    -0.61550
N320        N  0.46245873  0.25373617  0.94875961    -0.06580
N321        N  0.47447696  0.25504456  0.98943111    -0.59400
N322        N  0.46910682  0.30708373  0.85739908    -0.06260
N323        N  0.48618271  0.34416777  0.84200162    -0.61900
C324        C  0.52736467  0.35421537  0.83612537     0.94870
C325        C  0.45262253  0.27046573  0.01085481     0.94650
N326        N  0.31677897  0.19531993  0.89784102    -0.07490
N327        N  0.28190665  0.18106970  0.92220251    -0.60000
N328        N  0.37179047  0.26841287  0.82328731    -0.05610
N329        N  0.36870875  0.29750775  0.80202770    -0.61250
N330        N  0.34495402  0.23343608  0.80706937    -0.07520
N331        N  0.32422529  0.23775342  0.77406573    -0.60270
N332        N  0.34495965  0.23018457  0.91348078    -0.05250
N333        N  0.33119149  0.23949529  0.94871872    -0.61340
Mn334      Mn  0.40553930  0.26961534  0.88432663     1.18440
C335        C  0.29226868  0.20895195  0.95440477     0.96960
C336        C  0.33937179  0.27761342  0.77093553     0.97620
N337        N  0.46817582  0.17487752  0.91614937    -0.07540
N338        N  0.47670312  0.16106207  0.95276616    -0.63850
N339        N  0.47878384  0.19198874  0.80529736    -0.06340
N340        N  0.49664374  0.19248486  0.76760660    -0.64520
N341        N  0.50360062  0.22326583  0.82848109    -0.07040
N342        N  0.53827622  0.24637690  0.80683013    -0.64110
N343        N  0.44568365  0.14454017  0.89051164    -0.05940
N344        N  0.43886387  0.11028075  0.90802974    -0.64800
Mn345      Mn  0.48439460  0.23686925  0.89036896     1.10660
C346        C  0.45847644  0.12044065  0.94657269     0.98180
C347        C  0.53366482  0.22710807  0.76881090     0.98250
N348        N  0.35532970  0.16350745  0.77242461    -0.07050
N349        N  0.34616463  0.17025244  0.73275216    -0.62430
N350        N  0.35577679  0.10891411  0.85869603    -0.06370
N351        N  0.34328695  0.07041893  0.85476023    -0.59160
N352        N  0.32344414  0.11616332  0.85642356    -0.07680
N353        N  0.28916721  0.08219290  0.84720890    -0.61990
N354        N  0.38648400  0.15467614  0.77131109    -0.06670
N355        N  0.39875699  0.15473969  0.73090133    -0.59180
Mn356      Mn  0.33339327  0.17603151  0.83423162     1.20190
Mn357      Mn  0.41694177  0.14970028  0.83094359     1.10090
Cl358      Cl  0.40985654  0.20795929  0.86039781    -0.87150
C359        C  0.37323135  0.16432297  0.70708976     0.95180
C360        C  0.30209637  0.05380178  0.84545220     0.94980
N361        N  0.64947168  0.78047658  0.14151563    -0.07300
N362        N  0.64754187  0.74465585  0.14445815    -0.59420
N363        N  0.67204359  0.86862260  0.19004667    -0.06980
N364        N  0.68426851  0.88764534  0.22745013    -0.61550
N365        N  0.63207733  0.84153565  0.19194316    -0.06580
N366        N  0.61597890  0.84204072  0.22991370    -0.59400
N367        N  0.68924477  0.80845683  0.13977842    -0.06260
N368        N  0.71470860  0.79260676  0.14086880    -0.61900
C369        C  0.68875658  0.75286964  0.14367553     0.94870
C370        C  0.64857768  0.87082186  0.25176275     0.94650
N371        N  0.72051277  0.94804837  0.08529149    -0.07490
N372        N  0.72524235  0.98478564  0.08920512    -0.60000
N373        N  0.74494553  0.87301453  0.07539789    -0.05610
N374        N  0.76745485  0.85412274  0.07131982    -0.61250
N375        N  0.73608572  0.88249170  0.03716373    -0.07520
N376        N  0.75233809  0.86983432  0.00616115    -0.60270
N377        N  0.72751159  0.93549386  0.12277595    -0.05250
N378        N  0.73799353  0.96350767  0.15253479    -0.61340
Mn379      Mn  0.70961502  0.87218389  0.13308375     1.18440
C380        C  0.73699335  0.99433483  0.13115667     0.96960
C381        C  0.77267608  0.85290704  0.02809030     0.97620
N382        N  0.55210306  0.82154630  0.13955489    -0.07540
N383        N  0.52798189  0.82280116  0.17131297    -0.63850
N384        N  0.55263692  0.77088644  0.05385255    -0.06340
N385        N  0.52316696  0.74038464  0.03180281    -0.64520
N386        N  0.56303159  0.75731548  0.08873954    -0.07040
N387        N  0.54098474  0.71771754  0.09106566    -0.64110
N388        N  0.54653266  0.83789277  0.10395175    -0.05940
N389        N  0.51885617  0.85068111  0.11051756    -0.64800
Mn390      Mn  0.59870147  0.79882771  0.14119460     1.10660
C391        C  0.50784333  0.84140548  0.15260930     0.98180
C392        C  0.51670025  0.70718951  0.05492871     0.98250
N393        N  0.65338723  0.85887915  0.98321295    -0.07050
N394        N  0.66708552  0.84910798  0.94798174    -0.62430
N395        N  0.60290773  0.90404856  0.03157391    -0.06370
N396        N  0.58382761  0.92628424  0.02414075    -0.59160
N397        N  0.64399932  0.92679519  0.02796431    -0.07680
N398        N  0.65378928  0.96426841  0.01940273    -0.61990
N399        N  0.61247793  0.83545466  0.98760466    -0.06670
N400        N  0.59759843  0.80931598  0.95597282    -0.59180
Mn401      Mn  0.68963553  0.90488941  0.03189760     1.20190
Mn402      Mn  0.57738075  0.83733252  0.04336476     1.10090
Cl403      Cl  0.64363471  0.85317057  0.08729567    -0.87150
C404        C  0.63190164  0.81795329  0.93159186     0.95180
C405        C  0.61644033  0.96404474  0.01736344     0.94980
N406        N  0.72579732  0.85761453  0.64527307    -0.07300
N407        N  0.73973829  0.84602279  0.67911439    -0.59420
N408        N  0.73693295  0.90486130  0.55358643    -0.06980
N409        N  0.76033437  0.92551340  0.52067479    -0.61550
N410        N  0.73988828  0.92827392  0.58589105    -0.06580
N411        N  0.76480021  0.96617511  0.57505189    -0.59400
N412        N  0.72088006  0.83468844  0.61173947    -0.06260
N413        N  0.73136594  0.80678818  0.62201048    -0.61900
C414        C  0.74341847  0.81439680  0.66415567     0.94870
C415        C  0.77807768  0.96364959  0.53440076     0.94650
N416        N  0.61950916  0.84160536  0.49669528    -0.07490
N417        N  0.60804179  0.85029531  0.45938081    -0.60000
N418        N  0.64731233  0.77995248  0.55078374    -0.05610
N419        N  0.65902478  0.75348786  0.53915131    -0.61250
N420        N  0.60662566  0.76631049  0.54481619    -0.07520
N421        N  0.59024117  0.73002067  0.52711836    -0.60270
N422        N  0.66023060  0.85293438  0.49666462    -0.05250
N423        N  0.67734627  0.86981191  0.45918864    -0.61340
Mn424      Mn  0.69165134  0.84255797  0.55278076     1.18440
C425        C  0.64444870  0.86817849  0.43656462     0.96960
C426        C  0.62351000  0.72231744  0.52495063     0.97620
N427        N  0.67716658  0.94204041  0.64217620    -0.07540
N428        N  0.70207086  0.97896794  0.65395424    -0.63850
N429        N  0.62203383  0.85662029  0.70131735    -0.06340
N430        N  0.60458395  0.83327513  0.73525128    -0.64520
N431        N  0.66299522  0.86998553  0.70078505    -0.07040
N432        N  0.67430630  0.85591771  0.73458888    -0.64110
N433        N  0.63734835  0.93137130  0.65078687    -0.05940
N434        N  0.63571689  0.96111555  0.67206058    -0.64800
Mn435      Mn  0.70208654  0.90058610  0.64412358     1.10660
C436        C  0.67666562  0.99097255  0.67291270     0.98180
C437        C  0.63755762  0.83288588  0.75554868     0.98250
N438        N  0.54420860  0.77906511  0.60969107    -0.07050
N439        N  0.51819735  0.74065707  0.61568408    -0.62430
N440        N  0.55519123  0.87114328  0.59074677    -0.06370
N441        N  0.52513647  0.88174278  0.59301380    -0.59160
N442        N  0.55002511  0.84920452  0.55579888    -0.07680
N443        N  0.51639068  0.84509339  0.53395164    -0.61990
N444        N  0.54619413  0.79973073  0.64473967    -0.06670
N445        N  0.52097726  0.77547734  0.67536688    -0.59180
Mn446      Mn  0.57913164  0.80833363  0.55076978     1.20190
Mn447      Mn  0.58951774  0.86565055  0.64748389     1.10090
Cl448      Cl  0.64035069  0.85441658  0.59855487    -0.87150
C449        C  0.50415058  0.73879100  0.65670062     0.95180
C450        C  0.50158699  0.86626920  0.55696565     0.94980
N451        N  0.79849770  0.27797175  0.33952459    -0.07300
N452        N  0.78581616  0.30545445  0.33874994    -0.59420
N453        N  0.84929687  0.25629646  0.26424976    -0.06980
N454        N  0.86794845  0.26583783  0.22559035    -0.61550
N455        N  0.80809388  0.23751746  0.25940763    -0.06580
N456        N  0.79760882  0.23367949  0.21830989    -0.59400
N457        N  0.83930607  0.29473023  0.34770979    -0.06260
N458        N  0.85478240  0.33376073  0.35252422    -0.61900
C459        C  0.82111403  0.34014016  0.34731973     0.94870
C460        C  0.83486520  0.25120014  0.19753684     0.94650
N461        N  0.90594445  0.19928856  0.33141566    -0.07490
N462        N  0.93526040  0.19041318  0.31636474    -0.60000
N463        N  0.90206023  0.26771484  0.39850606    -0.05610
N464        N  0.92934495  0.29759655  0.42313524    -0.61250
N465        N  0.89410873  0.23350615  0.41695895    -0.07520
N466        N  0.91373113  0.23867590  0.45392362    -0.60270
N467        N  0.91000940  0.23192665  0.31170053    -0.05250
N468        N  0.94052768  0.24505515  0.28267828    -0.61340
Mn469      Mn  0.87629479  0.26424750  0.33088448     1.18440
C470        C  0.95589664  0.21899598  0.28517372     0.96960
C471        C  0.93564845  0.27840617  0.45801775     0.97620
N472        N  0.73330382  0.15540930  0.28473309    -0.07540
N473        N  0.73167573  0.14501391  0.24335305    -0.63850
N474        N  0.71394774  0.16583952  0.39116685    -0.06340
N475        N  0.68256600  0.15705928  0.41890423    -0.64520
N476        N  0.72045261  0.19709953  0.36736954    -0.07040
N477        N  0.69452312  0.21088138  0.37876228    -0.64110
N478        N  0.72613399  0.12465804  0.30996541    -0.05940
N479        N  0.71920541  0.09316552  0.28656033    -0.64800
Mn480      Mn  0.76401965  0.21705667  0.31238046     1.10660
C481        C  0.72202222  0.10575288  0.24509481     0.98180
C482        C  0.67120300  0.18591312  0.41107363     0.98250
N483        N  0.81781642  0.15807040  0.44616009    -0.07050
N484        N  0.82859206  0.16625402  0.48740026    -0.62430
N485        N  0.78336367  0.09991506  0.36044936    -0.06370
N486        N  0.76532080  0.06123072  0.36871565    -0.59160
N487        N  0.82462763  0.11560153  0.36430104    -0.07680
N488        N  0.83428416  0.08764146  0.37688284    -0.61990
N489        N  0.77678126  0.14369568  0.44188019    -0.06670
N490        N  0.75889947  0.14149779  0.48010542    -0.59180
Mn491      Mn  0.86105759  0.17591692  0.38887831     1.20190
Mn492      Mn  0.74895759  0.13296794  0.37647293     1.10090
Cl493      Cl  0.81282153  0.19785150  0.35222316    -0.87150
C494        C  0.79158683  0.15516339  0.50843479     0.95180
C495        C  0.79692466  0.05405137  0.38121405     0.94980
N496        N  0.88570812  0.28720371  0.79670422    -0.07300
N497        N  0.91361875  0.30470212  0.76529660    -0.59420
N498        N  0.88715207  0.26523510  0.90098138    -0.06980
N499        N  0.91553479  0.27907347  0.93154537    -0.61550
N500        N  0.89304169  0.24109553  0.87458073    -0.06580
N501        N  0.92868485  0.24080100  0.88601238    -0.59400
N502        N  0.88532241  0.31424307  0.82317701    -0.06260
N503        N  0.91395740  0.35065398  0.81069097    -0.61900
C504        C  0.93059893  0.34428927  0.77390232     0.94870
C505        C  0.94129851  0.26392464  0.92268788     0.94650
N506        N  0.78084937  0.25488104  0.95545680    -0.07490
N507        N  0.77215318  0.24450369  0.99682838    -0.60000
N508        N  0.81379246  0.32487739  0.87491647    -0.05610
N509        N  0.82792756  0.36385777  0.87418885    -0.61250
N510        N  0.77281970  0.30579134  0.88194656    -0.07520
N511        N  0.75816190  0.33170249  0.88579061    -0.60270
N512        N  0.82179886  0.27696447  0.95000027    -0.05250
N513        N  0.84186643  0.28240504  0.98708130    -0.61340
Mn514      Mn  0.85204069  0.29595924  0.88665111     1.18440
C515        C  0.81077958  0.26213909  0.01592653     0.96960
C516        C  0.79295104  0.36761340  0.88014107     0.97620
N517        N  0.81596597  0.15623082  0.82593362    -0.07540
N518        N  0.81858268  0.12813890  0.80237822    -0.63850
N519        N  0.77325256  0.18879538  0.75749928    -0.06340
N520        N  0.75651567  0.17858750  0.71824356    -0.64520
N521        N  0.81465292  0.20824935  0.75459291    -0.07040
N522        N  0.82688379  0.21160414  0.71364145    -0.64110
N523        N  0.77672189  0.14131327  0.83999269    -0.05940
N524        N  0.75528633  0.10287861  0.83224574    -0.64800
Mn525      Mn  0.85349070  0.22275026  0.81307796     1.10660
C526        C  0.78012450  0.09487218  0.80657448     0.98180
C527        C  0.79033829  0.19363259  0.69104748     0.98250
N528        N  0.70567408  0.22966782  0.83583290    -0.07050
N529        N  0.68742605  0.24939703  0.81847841    -0.62430
N530        N  0.70709825  0.15087360  0.88365215    -0.06370
N531        N  0.68553592  0.11328800  0.89680774    -0.59160
N532        N  0.70664671  0.17542629  0.91320987    -0.07680
N533        N  0.68423648  0.15454790  0.94748171    -0.61990
N534        N  0.70662141  0.20418778  0.80762091    -0.06670
N535        N  0.68849174  0.20539914  0.77085530    -0.59180
Mn536      Mn  0.73992641  0.24111145  0.89790383     1.20190
Mn537      Mn  0.74050952  0.17112956  0.82181088     1.10090
Cl538      Cl  0.79674470  0.23281207  0.85481588    -0.87150
C539        C  0.67716689  0.23412772  0.77789821     0.95180
C540        C  0.67134318  0.11549464  0.93675630     0.94980
C541        C  0.75659414  0.14943133  0.62728491    -0.27500
C542        C  0.78823816  0.18619328  0.64331763    -0.15580
C543        C  0.81933230  0.21317101  0.61395255     0.35050
C544        C  0.81985788  0.20122569  0.57093145    -0.26950
C545        C  0.78890805  0.16413621  0.55508038    -0.16190
C546        C  0.75656166  0.13784646  0.58382652     0.36140
N547        N  0.72421202  0.09875186  0.57099622    -0.90440
H548        H  0.73258812  0.12852358  0.64926847     0.17250
H549        H  0.84419807  0.22199386  0.54910803     0.17240
N550        N  0.85025202  0.25317812  0.62597977    -0.89470
H551        H  0.72696882  0.07753054  0.59066732     0.34620
H552        H  0.72862842  0.09184061  0.53935949     0.39720
H553        H  0.84313261  0.26123143  0.65593241     0.39340
H554        H  0.84783431  0.27309139  0.60389716     0.34230
C555        C  0.80746331  0.21920381  0.12761208    -0.27500
C556        C  0.83647716  0.25345981  0.15001825    -0.15580
C557        C  0.85877429  0.29019961  0.12776393     0.35050
C558        C  0.85045262  0.29210194  0.08342762    -0.26950
C559        C  0.81937242  0.25832709  0.06184970    -0.16190
C560        C  0.79870383  0.22121897  0.08365383     0.36140
N561        N  0.76901170  0.18583505  0.06115797    -0.90440
H562        H  0.79033390  0.19100001  0.14505534     0.17250
H563        H  0.86690218  0.32041673  0.06609430     0.17240
N564        N  0.88784695  0.32565051  0.15059487    -0.89470
H565        H  0.75644141  0.16102116  0.08215013     0.34620
H566        H  0.78560403  0.17968449  0.03708238     0.39720
H567        H  0.87050833  0.33247175  0.17317108     0.39340
H568        H  0.90165277  0.35015658  0.12926836     0.34230
C569        C  0.73542764  0.05510435  0.69561606    -0.27500
C570        C  0.69659013  0.02177253  0.70676105    -0.15580
C571        C  0.68763232  0.01110534  0.75089933     0.35050
C572        C  0.71825264  0.03279974  0.78242685    -0.26950
C573        C  0.75744555  0.06593645  0.77131984    -0.16190
C574        C  0.76591174  0.07713911  0.72712102     0.36140
N575        N  0.80495059  0.11116629  0.71426477    -0.90440
H576        H  0.74318796  0.06234950  0.66160500     0.17250
H577        H  0.71076120  0.02486338  0.81640611     0.17240
N578        N  0.64836740  0.97715949  0.76342942    -0.89470
H579        H  0.80566686  0.11593228  0.68069925     0.34620
H580        H  0.82923037  0.10424124  0.72105746     0.39720
H581        H  0.62420891  0.98403946  0.75578950     0.39340
H582        H  0.64712237  0.97269950  0.79707893     0.34230
C583        C  0.82422328  0.02109184  0.43234248    -0.27500
C584        C  0.79087618  0.02817243  0.41944304    -0.15580
C585        C  0.75686759  0.01871421  0.44870611     0.35050
C586        C  0.75730897  0.00316993  0.48960169    -0.26950
C587        C  0.78955526  0.99464209  0.50151700    -0.16190
C588        C  0.82336729  0.00346260  0.47287322     0.36140
N589        N  0.85650741  0.99442867  0.48512022    -0.90440
H590        H  0.85095717  0.02943134  0.41077990     0.17250
H591        H  0.73028710  0.99461129  0.51089821     0.17240
N592        N  0.72170397  0.02493578  0.43760145    -0.89470
H593        H  0.87960181  0.00379497  0.46080373     0.34620
H594        H  0.84353393  0.96324002  0.48734412     0.39720
H595        H  0.69412818  0.99739537  0.43998348     0.39340
H596        H  0.71982994  0.04448036  0.46032104     0.34230
C597        C  0.76150773  0.07243460  0.21759171    -0.27500
C598        C  0.73049177  0.08416124  0.20984378    -0.15580
C599        C  0.70567895  0.07092390  0.17204801     0.35050
C600        C  0.71066758  0.04392843  0.14412239    -0.26950
C601        C  0.73945354  0.02971680  0.15403198    -0.16190
C602        C  0.76633920  0.04550966  0.19010479     0.36140
N603        N  0.79758004  0.03309243  0.19945613    -0.90440
H604        H  0.78104675  0.08319871  0.24635493     0.17250
H605        H  0.69003455  0.03177686  0.11640252     0.17240
N606        N  0.67425270  0.08320562  0.16341051    -0.89470
H607        H  0.81446939  0.04713521  0.22746760     0.34620
H608        H  0.81928854  0.04298797  0.17378199     0.39720
H609        H  0.65161117  0.07147519  0.18815625     0.39340
H610        H  0.65856372  0.07063854  0.13438385     0.34230
C611        C  0.63609001  0.03571339  0.02725525    -0.27500
C612        C  0.61450200  0.00061306  0.00258312    -0.15580
C613        C  0.60493593  0.00451340  0.95901730     0.35050
C614        C  0.62008070  0.04284132  0.94028708    -0.26950
C615        C  0.64580989  0.07824913  0.96350561    -0.16190
C616        C  0.65164912  0.07438860  0.00874008     0.36140
N617        N  0.67587631  0.10802756  0.03642085    -0.90440
H618        H  0.64401426  0.03311068  0.06063966     0.17250
H619        H  0.61440749  0.04477112  0.90597140     0.17240
N620        N  0.58315588  0.97008083  0.93190161    -0.89470
H621        H  0.65580953  0.10773564  0.06116100     0.34620
H622        H  0.68636171  0.13530589  0.02037547     0.39720
H623        H  0.55390958  0.95134726  0.94623946     0.39340
H624        H  0.60059135  0.95452691  0.93061800     0.34230
C625        C  0.59453754  0.79463639  0.81831320    -0.27500
C626        C  0.63407733  0.81359975  0.79782290    -0.15580
C627        C  0.67032080  0.81939497  0.82088274     0.35050
C628        C  0.66769879  0.81410282  0.86584377    -0.26950
C629        C  0.62961138  0.80347458  0.88732153    -0.16190
C630        C  0.59193552  0.78937698  0.86326176     0.36140
N631        N  0.55161587  0.77351463  0.88432622    -0.90440
H632        H  0.56599175  0.78757592  0.80030600     0.17250
H633        H  0.69626712  0.82259725  0.88441932     0.17240
N634        N  0.70999518  0.83314148  0.79906749    -0.89470
H635        H  0.53236464  0.74479601  0.87209823     0.34620
H636        H  0.53797949  0.79163548  0.87605835     0.39720
H637        H  0.70584874  0.81037277  0.77758872     0.39340
H638        H  0.73352344  0.83615218  0.82094100     0.34230
C639        C  0.67395911  0.90598487  0.36814487    -0.27500
C640        C  0.64477766  0.87093387  0.38956216    -0.15580
C641        C  0.61702800  0.83690280  0.36595224     0.35050
C642        C  0.61797315  0.83892121  0.32098766    -0.26950
C643        C  0.64718278  0.87359212  0.29900175    -0.16190
C644        C  0.67534450  0.90771358  0.32250550     0.36140
N645        N  0.70491137  0.94356847  0.30015091    -0.90440
H646        H  0.69547215  0.93173095  0.38698164     0.17250
H647        H  0.59692071  0.81230130  0.30310689     0.17240
N648        N  0.58924302  0.79981884  0.38774147    -0.89470
H649        H  0.72330275  0.96578977  0.32243458     0.34620
H650        H  0.68754123  0.95455018  0.28278487     0.39720
H651        H  0.60804355  0.78938346  0.40328433     0.39340
H652        H  0.57065937  0.77775056  0.36541378     0.34230
C653        C  0.60571859  0.27442432  0.74782426    -0.27500
C654        C  0.57026079  0.23699965  0.74052933    -0.15580
C655        C  0.57640920  0.20553615  0.72424680     0.35050
C656        C  0.61621708  0.20790361  0.72874664    -0.26950
C657        C  0.64851294  0.24111086  0.74967464    -0.16190
C658        C  0.64517719  0.27644928  0.75418401     0.36140
N659        N  0.68018230  0.31241540  0.77033371    -0.90440
H660        H  0.60129942  0.29974161  0.75723748     0.17250
H661        H  0.61950701  0.18137123  0.72255155     0.17240
N662        N  0.54140650  0.16919547  0.70938174    -0.89470
H663        H  0.67200493  0.33539029  0.77300564     0.34620
H664        H  0.70434527  0.32193492  0.74718408     0.39720
H665        H  0.53868480  0.14561304  0.72932056     0.39340
H666        H  0.54829723  0.16379445  0.67788600     0.34230
C667        C  0.55720668  0.15642658  0.43451803    -0.27500
C668        C  0.55953437  0.19449140  0.43254445    -0.15580
C669        C  0.59943516  0.22911475  0.43480512     0.35050
C670        C  0.63594773  0.22502100  0.43267039    -0.26950
C671        C  0.63372152  0.18720237  0.42878438    -0.16190
C672        C  0.59416732  0.15237811  0.43259998     0.36140
N673        N  0.59133094  0.11329107  0.43002000    -0.90440
H674        H  0.52660801  0.12988690  0.43292778     0.17250
H675        H  0.66633462  0.25188129  0.43094045     0.17240
N676        N  0.60405343  0.26893264  0.43708324    -0.89470
H677        H  0.55978923  0.09094069  0.43122535     0.34620
H678        H  0.60576272  0.10939232  0.45778519     0.39720
H679        H  0.57503782  0.26838746  0.44169810     0.39340
H680        H  0.61646727  0.28329049  0.40739888     0.34230
C681        C  0.36223130  0.19754730  0.64248466    -0.27500
C682        C  0.37806204  0.17300831  0.65983577    -0.15580
C683        C  0.39834355  0.15790625  0.63191403     0.35050
C684        C  0.40062859  0.16640288  0.58715335    -0.26950
C685        C  0.38406192  0.19039083  0.56973770    -0.16190
C686        C  0.36541047  0.20666896  0.59804343     0.36140
N687        N  0.34964832  0.23258242  0.58206103    -0.90440
H688        H  0.34746853  0.21014183  0.66358172     0.17250
H689        H  0.41530705  0.15397232  0.56576139     0.17240
N690        N  0.41560529  0.13323993  0.64862515    -0.89470
H691        H  0.36594409  0.26008836  0.59788469     0.34620
H692        H  0.31770991  0.22006845  0.59044108     0.39720
H693        H  0.44253659  0.15182150  0.66647145     0.39340
H694        H  0.42606886  0.12189292  0.62325138     0.34230
C695        C  0.47552244  0.26823484  0.13005340    -0.27500
C696        C  0.44142498  0.27098523  0.14874772    -0.15580
C697        C  0.41379253  0.27811708  0.12228521     0.35050
C698        C  0.41981145  0.28039309  0.07715237    -0.26950
C699        C  0.45213922  0.27465019  0.05828588    -0.16190
C700        C  0.48147396  0.27036967  0.08509877     0.36140
N701        N  0.51692349  0.26789227  0.06677330    -0.90440
H702        H  0.49758026  0.26406781  0.15064915     0.17250
H703        H  0.39798493  0.28491639  0.05660309     0.17240
N704        N  0.37895231  0.28141031  0.14097664    -0.89470
H705        H  0.53496828  0.26408123  0.09115971     0.34620
H706        H  0.53640011  0.29549376  0.05182683     0.39720
H707        H  0.35825063  0.25349870  0.15455631     0.39340
H708        H  0.36203733  0.28715827  0.11684306     0.34230
C709        C  0.47716678  0.66729199  0.67357233    -0.27500
C710        C  0.47115106  0.70121839  0.67547133    -0.15580
C711        C  0.43066626  0.69665477  0.68390003     0.35050
C712        C  0.39601533  0.65785422  0.68488192    -0.26950
C713        C  0.40156356  0.62401547  0.67828927    -0.16190
C714        C  0.44264905  0.62850461  0.67495773     0.36140
N715        N  0.44892499  0.59406778  0.66877713    -0.90440
H716        H  0.50847413  0.67114328  0.66697874     0.17250
H717        H  0.36431553  0.65412796  0.68733470     0.17240
N718        N  0.42439889  0.73133953  0.68675911    -0.89470
H719        H  0.48114544  0.60266451  0.66750725     0.34620
H720        H  0.43658346  0.58190174  0.63840620     0.39720
H721        H  0.43996208  0.74701040  0.71465542     0.39340
H722        H  0.39240509  0.72271292  0.69123242     0.34230
C723        C  0.26504142  0.31316507  0.72622097    -0.27500
C724        C  0.27465792  0.31643899  0.68166427    -0.15580
C725        C  0.30673033  0.30811118  0.66682188     0.35050
C726        C  0.32858562  0.29660145  0.69678108    -0.26950
C727        C  0.32012212  0.29497649  0.74142870    -0.16190
C728        C  0.28780819  0.30288530  0.75634237     0.36140
N729        N  0.27800000  0.29999615  0.80194754    -0.90440
H730        H  0.24149222  0.32101717  0.73783539     0.17250
H731        H  0.35245692  0.28909314  0.68535992     0.17240
N732        N  0.31773445  0.31267736  0.62147934    -0.89470
H733        H  0.25305586  0.30624354  0.80753593     0.34620
H734        H  0.30431544  0.32232501  0.81777427     0.39720
H735        H  0.29185508  0.29098158  0.60451413     0.39340
H736        H  0.34299119  0.30693402  0.61595573     0.34230
C737        C  0.32692489  0.39536339  0.48212068    -0.27500
C738        C  0.35853246  0.43503734  0.48726180    -0.15580
C739        C  0.39971696  0.44655716  0.47155486     0.35050
C740        C  0.40843364  0.41744580  0.45263860    -0.26950
C741        C  0.37737146  0.37697809  0.45049545    -0.16190
C742        C  0.33580762  0.36609870  0.46461421     0.36140
N743        N  0.30259044  0.32533759  0.46159336    -0.90440
H744        H  0.29554826  0.38650411  0.49472507     0.17250
H745        H  0.44017232  0.42618006  0.44134909     0.17240
N746        N  0.43368311  0.48677610  0.47599021    -0.89470
H747        H  0.27322920  0.32370074  0.46772559     0.34620
H748        H  0.30718707  0.30902495  0.48660313     0.39720
H749        H  0.42321227  0.50553779  0.49000147     0.39340
H750        H  0.44411425  0.49808011  0.44470913     0.34230
C751        C  0.02576485  0.35106195  0.52768094    -0.27500
C752        C  0.04249494  0.32607482  0.54274284    -0.15580
C753        C  0.01948799  0.28466280  0.53655651     0.35050
C754        C  0.98258570  0.26962410  0.51140104    -0.26950
C755        C  0.96932001  0.29551962  0.49112177    -0.16190
C756        C  0.98992984  0.33635381  0.50122907     0.36140
N757        N  0.97541972  0.36285527  0.48356655    -0.90440
H758        H  0.04245600  0.38299213  0.53412185     0.17250
H759        H  0.96593791  0.23768778  0.50518422     0.17240
N760        N  0.03465822  0.25845456  0.55357865    -0.89470
H761        H  0.99474624  0.39232080  0.49373778     0.34620
H762        H  0.94540824  0.35412345  0.49648793     0.39720
H763        H  0.06296203  0.26529629  0.53763997     0.39340
H764        H  0.01360325  0.22857298  0.54628334     0.34230
C765        C  0.00655158  0.39318445  0.77834789    -0.27500
C766        C  0.97002856  0.37447655  0.75277221    -0.15580
C767        C  0.97369563  0.37962504  0.70702960     0.35050
C768        C  0.01386425  0.40174240  0.68805542    -0.26950
C769        C  0.05059123  0.41766713  0.71345923    -0.16190
C770        C  0.04684038  0.41416523  0.75913059     0.36140
N771        N  0.08412610  0.43037056  0.78565836    -0.90440
H772        H  0.00390053  0.38890602  0.81329911     0.17250
H773        H  0.01649316  0.40402746  0.65293992     0.17240
N774        N  0.93761073  0.36239255  0.67880891    -0.89470
H775        H  0.07607017  0.42471872  0.81856465     0.34620
H776        H  0.09944545  0.46154410  0.78156866     0.39720
H777        H  0.90933876  0.34841394  0.69627033     0.39340
H778        H  0.93964307  0.34028195  0.66031830     0.34230
C779        C  0.44096025  0.66077655  0.03805691    -0.27500
C780        C  0.48128454  0.66557125  0.04751282    -0.15580
C781        C  0.48546306  0.63041546  0.05448332     0.35050
C782        C  0.44912720  0.59231727  0.05532059    -0.26950
C783        C  0.40848932  0.58795657  0.04914693    -0.16190
C784        C  0.40476098  0.62280276  0.03892581     0.36140
N785        N  0.36473978  0.62099739  0.02956740    -0.90440
H786        H  0.43709860  0.68708343  0.03203189     0.17250
H787        H  0.45259904  0.56609939  0.06320476     0.17240
N788        N  0.52577042  0.63204277  0.06147662    -0.89470
H789        H  0.35727540  0.63440063  0.05535737     0.34620
H790        H  0.34053974  0.59150269  0.02705492     0.39720
H791        H  0.55053088  0.66108300  0.05730458     0.39340
H792        H  0.52984996  0.61501586  0.03713528     0.34230
C793        C  0.29780922  0.37247712  0.28737386    -0.27500
C794        C  0.28319319  0.36634616  0.24453040    -0.15580
C795        C  0.25860945  0.32656300  0.22960528     0.35050
C796        C  0.25494057  0.29419158  0.25524653    -0.26950
C797        C  0.27519541  0.30072641  0.29546469    -0.16190
C798        C  0.29411170  0.34007244  0.31306373     0.36140
N799        N  0.31350222  0.34866819  0.35520081    -0.90440
H800        H  0.31549647  0.40278309  0.29960181     0.17250
H801        H  0.24056617  0.26431419  0.24151963     0.17240
N802        N  0.23967220  0.31937853  0.18723366    -0.89470
H803        H  0.34612899  0.36561820  0.35070114     0.34620
H804        H  0.30794059  0.32234840  0.37148240     0.39720
H805        H  0.21723783  0.32951537  0.18750791     0.39340
H806        H  0.22330855  0.28862383  0.18077947     0.34230
C807        C  0.27006645  0.24276918  0.05945211    -0.27500
C808        C  0.24708640  0.26170853  0.04474590    -0.15580
C809        C  0.22953548  0.25297748  0.00239082     0.35050
C810        C  0.23868752  0.22856423  0.97457417    -0.26950
C811        C  0.26483239  0.21253846  0.98801120    -0.16190
C812        C  0.27849756  0.21783893  0.03188370     0.36140
N813        N  0.30279153  0.19977157  0.04875148    -0.90440
H814        H  0.28275357  0.24840813  0.09211642     0.17250
H815        H  0.22912024  0.22563120  0.94081243     0.17240
N816        N  0.20573066  0.27186753  0.98628848    -0.89470
H817        H  0.33313160  0.22273617  0.05532151     0.34620
H818        H  0.30572446  0.18097603  0.02583637     0.39720
H819        H  0.17696792  0.25924501  0.00301517     0.39340
H820        H  0.19820603  0.26506065  0.95351631     0.34230
C821        C  0.28881278  0.43696808  0.83365988    -0.27500
C822        C  0.25670232  0.44471913  0.81825884    -0.15580
C823        C  0.22599500  0.44412073  0.84726500     0.35050
C824        C  0.22634519  0.43263125  0.89028326    -0.26950
C825        C  0.25712194  0.42283067  0.90526553    -0.16190
C826        C  0.28907599  0.42524336  0.87673545     0.36140
N827        N  0.32057004  0.41393098  0.88915543    -0.90440
H828        H  0.31211640  0.43701488  0.81128257     0.17250
H829        H  0.20230774  0.43153602  0.91235549     0.17240
N830        N  0.19407779  0.45472935  0.83437417    -0.89470
H831        H  0.31672753  0.39007460  0.86934831     0.34620
H832        H  0.31620956  0.40282617  0.92083492     0.39720
H833        H  0.19921092  0.46637752  0.80284127     0.39340
H834        H  0.19718973  0.47831201  0.85421335     0.34230
C835        C  0.23029352  0.44790643  0.33155109    -0.27500
C836        C  0.19416268  0.44446154  0.31017499    -0.15580
C837        C  0.16086515  0.44373842  0.33487521     0.35050
C838        C  0.16595565  0.44956824  0.38017703    -0.26950
C839        C  0.20390739  0.45679632  0.40067315    -0.16190
C840        C  0.23558549  0.45411253  0.37637542     0.36140
N841        N  0.27320652  0.45810236  0.39712936    -0.90440
H842        H  0.25542952  0.44712290  0.31286667     0.17250
H843        H  0.14112911  0.45059633  0.39915221     0.17240
N844        N  0.12307667  0.43895014  0.31395033    -0.89470
H845        H  0.29359824  0.45586941  0.37441640     0.34620
H846        H  0.26420902  0.43383974  0.41855381     0.39720
H847        H  0.13123410  0.46430770  0.29446291     0.39340
H848        H  0.10147395  0.43846106  0.33698831     0.34230
C849        C  0.98378397  0.28813529  0.98833378    -0.27500
C850        C  0.98346131  0.28461642  0.94278098    -0.15580
C851        C  0.01777334  0.31376904  0.91872643     0.35050
C852        C  0.05098699  0.34598839  0.94056999    -0.26950
C853        C  0.05007229  0.35056298  0.98588690    -0.16190
C854        C  0.01637205  0.32077894  0.01003933     0.36140
N855        N  0.01598671  0.32310807  0.05664989    -0.90440
H856        H  0.95671397  0.26667948  0.00683409     0.17250
H857        H  0.07801619  0.36762211  0.92218291     0.17240
N858        N  0.01742590  0.31195055  0.87208179    -0.89470
H859        H  0.98970660  0.29817665  0.06966166     0.34620
H860        H  0.01251824  0.34821307  0.06451716     0.39720
H861        H  0.01898454  0.28601371  0.86347142     0.39340
H862        H  0.04434414  0.33624137  0.85909177     0.34230
C863        C  0.03028459  0.24190063  0.19061002    -0.27500
C864        C  0.06550598  0.27600854  0.20680436    -0.15580
C865        C  0.06743712  0.28332567  0.25211208     0.35050
C866        C  0.03305037  0.25908282  0.27903014    -0.26950
C867        C  0.99573156  0.22795729  0.26200854    -0.16190
C868        C  0.99522562  0.21814781  0.21750657     0.36140
N869        N  0.95873422  0.18579051  0.19805084    -0.90440
H870        H  0.02834893  0.23562026  0.15612879     0.17250
H871        H  0.03385268  0.26741555  0.31281052     0.17240
N872        N  0.10332408  0.31613424  0.27159751    -0.89470
H873        H  0.94592944  0.19832344  0.17621212     0.34620
H874        H  0.93553491  0.16978371  0.22131986     0.39720
H875        H  0.10632795  0.34317305  0.25945684     0.39340
H876        H  0.13033569  0.31396091  0.26329216     0.34230
C877        C  0.42953500  0.83818428  0.58763281    -0.27500
C878        C  0.45737660  0.85975629  0.55377679    -0.15580
C879        C  0.44234790  0.87480065  0.51951713     0.35050
C880        C  0.40073391  0.86957167  0.52144286    -0.26950
C881        C  0.37359843  0.84942283  0.55649039    -0.16190
C882        C  0.38781797  0.83184936  0.58893677     0.36140
N883        N  0.36093520  0.80710088  0.62355193    -0.90440
H884        H  0.44024879  0.82557507  0.61341598     0.17250
H885        H  0.39008806  0.88266080  0.49613909     0.17240
N886        N  0.46847451  0.89635735  0.48310362    -0.89470
H887        H  0.36012641  0.77916453  0.62169152     0.34620
H888        H  0.32970239  0.80095976  0.61930799     0.39720
H889        H  0.49837852  0.89841047  0.48520652     0.39340
H890        H  0.47289949  0.92570337  0.48417954     0.34230
C891        C  0.17009131  0.61087437  0.63279087    -0.27500
C892        C  0.21136584  0.61620427  0.62893889    -0.15580
C893        C  0.24595302  0.65375372  0.63903333     0.35050
C894        C  0.23854355  0.68622940  0.64790283    -0.26950
C895        C  0.19748483  0.68154537  0.64654877    -0.16190
C896        C  0.16276141  0.64314895  0.64108078     0.36140
N897        N  0.11984573  0.63619993  0.64194746    -0.90440
H898        H  0.14307286  0.58187709  0.62672372     0.17250
H899        H  0.26510382  0.71595217  0.65195809     0.17240
N900        N  0.28831033  0.65925100  0.63839595    -0.89470
H901        H  0.10770038  0.62851353  0.61052068     0.34620
H902        H  0.11812752  0.66201831  0.65060475     0.39720
H903        H  0.29056400  0.64146759  0.66330237     0.39340
H904        H  0.31002702  0.68894329  0.64570573     0.34230
C905        C  0.24505817  0.03967313  0.51656104    -0.27500
C906        C  0.20154955  0.01490357  0.51449720    -0.15580
C907        C  0.17753598  0.02213360  0.48253290     0.35050
C908        C  0.19833783  0.05171017  0.45068223    -0.26950
C909        C  0.24235106  0.07368938  0.45027346    -0.16190
C910        C  0.26580892  0.06897506  0.48469587     0.36140
N911        N  0.31085314  0.09340967  0.48650082    -0.90440
H912        H  0.26333812  0.03401712  0.54100047     0.17250
H913        H  0.18024501  0.05626232  0.42518361     0.17240
N914        N  0.13225655  0.99962228  0.48112392    -0.89470
H915        H  0.32341684  0.08559630  0.51325392     0.34620
H916        H  0.31648690  0.12274406  0.49173656     0.39720
H917        H  0.12015653  0.98043665  0.50793729     0.39340
H918        H  0.12400916  0.98182519  0.45328238     0.34230
C919        C  0.29150283  0.96877285  0.77458006    -0.27500
C920        C  0.29680407  0.98698703  0.73346006    -0.15580
C921        C  0.29979737  0.02536667  0.73010691     0.35050
C922        C  0.29525562  0.04392038  0.76732899    -0.26950
C923        C  0.28999715  0.02606036  0.80857212    -0.16190
C924        C  0.28888304  0.98842218  0.81238357     0.36140
N925        N  0.28565978  0.97073683  0.85458744    -0.90440
H926        H  0.28771331  0.93867434  0.77703191     0.17250
H927        H  0.29876260  0.07390152  0.76440775     0.17240
N928        N  0.30652714  0.04492833  0.68840587    -0.89470
H929        H  0.28520742  0.94301543  0.85184213     0.34620
H930        H  0.25656962  0.96495118  0.86790780     0.39720
H931        H  0.33622285  0.05040099  0.67717194     0.39340
H932        H  0.30765005  0.07292432  0.69134016     0.34230
C933        C  0.39847555  0.81662071  0.18516424    -0.27500
C934        C  0.39928372  0.85261195  0.17237073    -0.15580
C935        C  0.43834560  0.88733195  0.16586867     0.35050
C936        C  0.47533372  0.88415122  0.16610549    -0.26950
C937        C  0.47387218  0.84684189  0.17224868    -0.16190
C938        C  0.43576892  0.81330283  0.18490705     0.36140
N939        N  0.43431001  0.77514805  0.19231095    -0.90440
H940        H  0.36838040  0.79003328  0.19039627     0.17250
H941        H  0.50481818  0.91011328  0.15705213     0.17240
N942        N  0.44108437  0.92565610  0.15665707    -0.89470
H943        H  0.40346994  0.75315145  0.19943656     0.34620
H944        H  0.45226524  0.77789137  0.22002214     0.39720
H945        H  0.42593022  0.93240542  0.18174587     0.39340
H946        H  0.42546587  0.92412873  0.12757319     0.34230
C947        C  0.18672250  0.63899698  0.05928441    -0.27500
C948        C  0.22487080  0.67445959  0.06603239    -0.15580
C949        C  0.26008272  0.67068654  0.08049198     0.35050
C950        C  0.25630858  0.63212030  0.08835125    -0.26950
C951        C  0.21785048  0.59636545  0.08270922    -0.16190
C952        C  0.18290862  0.60046625  0.06690900     0.36140
N953        N  0.14282506  0.56628250  0.05886333    -0.90440
H954        H  0.15909022  0.64125665  0.04913284     0.17250
H955        H  0.28362649  0.63019242  0.10020347     0.17240
N956        N  0.29904800  0.70619336  0.08960748    -0.89470
H957        H  0.13129280  0.55048153  0.08799553     0.34620
H958        H  0.14703892  0.54789212  0.03636087     0.39720
H959        H  0.31073573  0.72147127  0.06020792     0.39340
H960        H  0.32164467  0.69860216  0.10126261     0.34230
C961        C  0.43062344  0.01646641  0.98576278    -0.27500
C962        C  0.40732226  0.01398247  0.02318273    -0.15580
C963        C  0.41227722  0.05034182  0.04178088     0.35050
C964        C  0.43478155  0.08698362  0.01913310    -0.26950
C965        C  0.45280139  0.08835216  0.97841280    -0.16190
C966        C  0.45324931  0.05326006  0.96318503     0.36140
N967        N  0.47372211  0.05452393  0.92264589    -0.90440
H968        H  0.42734635  0.98907159  0.97139515     0.17250
H969        H  0.43451733  0.11361435  0.03148594     0.17240
N970        N  0.39275467  0.05078113  0.08240398    -0.89470
H971        H  0.47060304  0.02629858  0.91537403     0.34620
H972        H  0.50599295  0.07383250  0.92663202     0.39720
H973        H  0.37956156  0.02276554  0.09780720     0.39340
H974        H  0.36829465  0.05749034  0.07575994     0.34230
C975        C  0.35104425  0.09307628  0.19261490    -0.27500
C976        C  0.35969634  0.08029028  0.23258772    -0.15580
C977        C  0.34064237  0.03857323  0.24165670     0.35050
C978        C  0.31065680  0.01148608  0.21285128    -0.26950
C979        C  0.30034604  0.02418905  0.17383590    -0.16190
C980        C  0.32155195  0.06569328  0.16315046     0.36140
N981        N  0.31287215  0.08150861  0.12409937    -0.90440
H982        H  0.36554137  0.12488842  0.18519212     0.17250
H983        H  0.29574557  0.97975558  0.22086022     0.17240
N984        N  0.35102160  0.02240775  0.27943672    -0.89470
H985        H  0.30103587  0.10080450  0.13331936     0.34620
H986        H  0.28926844  0.05908045  0.10565724     0.39720
H987        H  0.37735355  0.04435853  0.29539631     0.39340
H988        H  0.36058006  0.00181967  0.26862690     0.34230
C989        C  0.18807070  0.86064873  0.86708718    -0.27500
C990        C  0.19425628  0.83007781  0.88673518    -0.15580
C991        C  0.18108876  0.79357942  0.86424079     0.35050
C992        C  0.16542111  0.79032945  0.82180488    -0.26950
C993        C  0.16085627  0.82176717  0.80214372    -0.16190
C994        C  0.17047333  0.85652533  0.82597637     0.36140
N995        N  0.16548431  0.88893523  0.80725643    -0.90440
H996        H  0.19760941  0.88880184  0.88366062     0.17250
H997        H  0.15807864  0.76349609  0.80336890     0.17240
N998        N  0.18231869  0.75926959  0.88285063    -0.89470
H999        H  0.17644747  0.91339276  0.82832842     0.34980
H1000       H  0.13309918  0.87874176  0.80362099     0.39720
H1001       H  0.18940323  0.76278301  0.91584433     0.39340
H1002       H  0.20606658  0.75584226  0.86694101     0.34230
C1003       C  0.23483940  0.91507562  0.31897213    -0.27500
C1004       C  0.25459607  0.89447321  0.30034190    -0.15580
C1005       C  0.27627543  0.88019643  0.32769149     0.35050
C1006       C  0.27096465  0.88017605  0.37250324    -0.26950
C1007       C  0.24394439  0.89340498  0.39040235    -0.16190
C1008       C  0.22925085  0.91473189  0.36401706     0.36140
N1009       N  0.20628108  0.93342569  0.38250264    -0.90440
H1010       H  0.22046165  0.92848988  0.29836360     0.17250
H1011       H  0.28475713  0.86605714  0.39291746     0.17240
N1012       N  0.30207204  0.86376495  0.31135619    -0.89470
H1013       H  0.19693514  0.94704005  0.35830505     0.34620
H1014       H  0.22702971  0.95644787  0.40274318     0.39720
H1015       H  0.32361112  0.88396127  0.28891334     0.39340
H1016       H  0.28306374  0.83634835  0.29637474     0.34230
C1017       C  0.59777868  0.39814420  0.80362790    -0.27500
C1018       C  0.56146229  0.39474588  0.82449704    -0.15580
C1019       C  0.56099186  0.42996757  0.83854246     0.35050
C1020       C  0.59694468  0.46704573  0.83311552    -0.26950
C1021       C  0.63425011  0.47046471  0.81460615    -0.16190
C1022       C  0.63437652  0.43533934  0.79875837     0.36140
N1023       N  0.67089470  0.43527552  0.77977707    -0.90440
H1024       H  0.59845467  0.37127096  0.79271433     0.17250
H1025       H  0.59619929  0.49350933  0.84535258     0.17240
N1026       N  0.52564620  0.42907522  0.86092878    -0.89470
H1027       H  0.67915933  0.41757381  0.79958160     0.34620
H1028       H  0.69708555  0.46360682  0.77916774     0.39720
H1029       H  0.51927961  0.41105396  0.88870572     0.39340
H1030       H  0.49947668  0.41686278  0.84035436     0.34230
C1031       C  0.82971260  0.46623174  0.93509852    -0.27500
C1032       C  0.82835095  0.48900574  0.89988794    -0.15580
C1033       C  0.80667110  0.46982886  0.86154363     0.35050
C1034       C  0.79078279  0.42836630  0.85749473    -0.26950
C1035       C  0.79584517  0.40616885  0.89111962    -0.16190
C1036       C  0.81392506  0.42481852  0.93107957     0.36140
N1037       N  0.81826473  0.40300463  0.96743102    -0.90440
H1038       H  0.84524743  0.48094408  0.96492370     0.17250
H1039       H  0.77694526  0.41378806  0.82704011     0.17240
N1040       N  0.80200046  0.49271689  0.82647891    -0.89470
H1041       H  0.85047296  0.41269192  0.97183058     0.34620
H1042       H  0.80378860  0.37218618  0.96165062     0.39720
H1043       H  0.78324885  0.50501215  0.83780612     0.39340
H1044       H  0.78568003  0.47405072  0.80054410     0.34230
C1045       C  0.82120265  0.83071507  0.99442494    -0.27500
C1046       C  0.78065520  0.82145144  0.00944885    -0.15580
C1047       C  0.74847018  0.78099282  0.01022407     0.35050
C1048       C  0.75745044  0.75116182  0.99553664    -0.26950
C1049       C  0.79743843  0.76011107  0.97956339    -0.16190
C1050       C  0.82983527  0.80025883  0.97888844     0.36140
N1051       N  0.87064996  0.81001149  0.96146923    -0.90440
H1052       H  0.84591185  0.86166003  0.99449992     0.17250
H1053       H  0.73225185  0.72038101  0.99566292     0.17240
N1054       N  0.70599251  0.76881505  0.02465298    -0.89470
H1055       H  0.89083365  0.84091516  0.96330462     0.34620
H1056       H  0.86684632  0.80285243  0.92843380     0.39720
H1057       H  0.70132733  0.79290854  0.03366638     0.39340
H1058       H  0.70032695  0.75069397  0.05221646     0.34230
C1059       C  0.72855438  0.71727255  0.71245857    -0.27500
C1060       C  0.74039567  0.72803896  0.75587323    -0.15580
C1061       C  0.75732812  0.76834273  0.76823055     0.35050
C1062       C  0.76103559  0.79700491  0.73673940    -0.26950
C1063       C  0.74791444  0.78576208  0.69352629    -0.16190
C1064       C  0.73367353  0.74573186  0.68086683     0.36140
N1065       N  0.72462519  0.73392562  0.63612083    -0.90440
H1066       H  0.71732755  0.68642038  0.70255087     0.17250
H1067       H  0.77359788  0.82812778  0.74609450     0.17240
N1068       N  0.77227036  0.78013592  0.81178536    -0.89470
H1069       H  0.71364755  0.70309248  0.63273375     0.34620
H1070       H  0.75317220  0.74814148  0.61899614     0.39720
H1071       H  0.74607565  0.76718951  0.83251533     0.39340
H1072       H  0.78537191  0.81122726  0.81510951     0.34230
C1073       C  0.93152468  0.78112462  0.68446838    -0.27500
C1074       C  0.92706724  0.74285644  0.69317914    -0.15580
C1075       C  0.95706646  0.73239337  0.67688888     0.35050
C1076       C  0.99231274  0.76085899  0.65483807    -0.26950
C1077       C  0.99735810  0.79902285  0.64642970    -0.16190
C1078       C  0.96684957  0.80962139  0.66088168     0.36140
N1079       N  0.97315525  0.84962332  0.65379209    -0.90440
H1080       H  0.90920682  0.78952972  0.69838815     0.17250
H1081       H  0.01744486  0.75400540  0.64674423     0.17240
N1082       N  0.95322683  0.69350411  0.68533456    -0.89470
H1083       H  0.94815147  0.85271023  0.66717957     0.34620
H1084       H  0.97242456  0.85381712  0.62025467     0.39720
H1085       H  0.95329255  0.68041969  0.65552348     0.39340
H1086       H  0.97982709  0.69726041  0.70268318     0.34230
C1087       C  0.03336908  0.79123585  0.92250988    -0.27500
C1088       C  0.00092874  0.75752586  0.94305782    -0.15580
C1089       C  0.00356074  0.75292379  0.98852100     0.35050
C1090       C  0.03696087  0.78216397  0.01246757    -0.26950
C1091       C  0.06921685  0.81629332  0.99254023    -0.16190
C1092       C  0.06758494  0.82064775  0.94666796     0.36140
N1093       N  0.09995956  0.85511136  0.92473245    -0.90440
H1094       H  0.03152775  0.79513212  0.88780951     0.17250
H1095       H  0.03776719  0.77755222  0.04716375     0.17240
N1096       N  0.97250482  0.71798861  0.01084148    -0.89470
H1097       H  0.09271749  0.85490974  0.89179292     0.34620
H1098       H  0.12738566  0.85227025  0.92577076     0.39720
H1099       H  0.95883350  0.72733219  0.03512523     0.39340
H1100       H  0.98786242  0.70369004  0.02586406     0.34230
C1101       C  0.64789991  0.42085791  0.40425578    -0.27500
C1102       C  0.63782201  0.44938639  0.42162104    -0.15580
C1103       C  0.59590912  0.43868610  0.43269344     0.35050
C1104       C  0.56411978  0.40138956  0.41990178    -0.26950
C1105       C  0.57355025  0.37530498  0.39562938    -0.16190
C1106       C  0.61582293  0.38355696  0.39058206     0.36140
N1107       N  0.62614871  0.35617384  0.36809655    -0.90440
H1108       H  0.68046877  0.42960114  0.39615549     0.17250
H1109       H  0.53159589  0.39439611  0.42559832     0.17240
N1110       N  0.58428454  0.46633252  0.45265351    -0.89470
H1111       H  0.65872507  0.36640544  0.36879270     0.34620
H1112       H  0.61818321  0.35614229  0.33542059     0.39720
H1113       H  0.61098103  0.49291049  0.46126986     0.39340
H1114       H  0.56877896  0.45329891  0.48181226     0.34230
C1115       C  0.79752311  0.42577009  0.31927850    -0.27500
C1116       C  0.83829257  0.45852264  0.31988761    -0.15580
C1117       C  0.87313049  0.45228904  0.32957220     0.35050
C1118       C  0.86611271  0.41365807  0.33996648    -0.26950
C1119       C  0.82533394  0.38066004  0.34008526    -0.16190
C1120       C  0.79050332  0.38684023  0.32968664     0.36140
N1121       N  0.74820851  0.35396024  0.33029200    -0.90440
H1122       H  0.77086551  0.43091247  0.31276909     0.17250
H1123       H  0.89324315  0.40950620  0.34728283     0.17240
N1124       N  0.91603903  0.48425444  0.32901243    -0.89470
H1125       H  0.72653163  0.36361658  0.32099967     0.34620
H1126       H  0.74094793  0.34399124  0.36247772     0.39720
H1127       H  0.91801957  0.51121784  0.31805008     0.39340
H1128       H  0.93264737  0.47684839  0.30611372     0.34230
C1129       C  0.67260323  0.66092407  0.49127834    -0.27500
C1130       C  0.67679185  0.66873650  0.44633506    -0.15580
C1131       C  0.65239248  0.68463668  0.42669469     0.35050
C1132       C  0.62765779  0.69590650  0.45316973    -0.26950
C1133       C  0.62716407  0.69171665  0.49867164    -0.16190
C1134       C  0.64793116  0.67174757  0.51743895     0.36140
N1135       N  0.64752785  0.66508876  0.56357213    -0.90440
H1136       H  0.68976990  0.64731328  0.50678922     0.17250
H1137       H  0.61259900  0.71203949  0.43874718     0.17240
N1138       N  0.65476068  0.69159498  0.38057810    -0.89470
H1139       H  0.63487795  0.63417976  0.56866777     0.34620
H1140       H  0.62714868  0.67329820  0.57944439     0.39720
H1141       H  0.68553984  0.71358321  0.37322274     0.39340
H1142       H  0.63483827  0.70334288  0.37137450     0.34230
C1143       C  0.74965037  0.73890372  0.14561274    -0.27500
C1144       C  0.70570135  0.72428286  0.15067295    -0.15580
C1145       C  0.68126822  0.68535030  0.16787059     0.35050
C1146       C  0.70160055  0.66474246  0.18465719    -0.26950
C1147       C  0.74599466  0.68205623  0.18568550    -0.16190
C1148       C  0.77019917  0.71847027  0.16313384     0.36140
N1149       N  0.81547455  0.73735942  0.16055788    -0.90440
H1150       H  0.76890568  0.76803948  0.13073442     0.17250
H1151       H  0.68246989  0.63654204  0.20140177     0.17240
N1152       N  0.63626717  0.66699165  0.17184230    -0.89470
H1153       H  0.82364529  0.74005873  0.12763299     0.34620
H1154       H  0.82709042  0.71942072  0.17448242     0.39720
H1155       H  0.62350771  0.66600644  0.14107057     0.39340
H1156       H  0.62843448  0.68420525  0.19260288     0.34230
C1157       C  0.97929254  0.70031425  0.20192661    -0.27500
C1158       C  0.98228935  0.69304660  0.24634075    -0.15580
C1159       C  0.02165730  0.69965836  0.26313101     0.35050
C1160       C  0.05704277  0.71431906  0.23530786    -0.26950
C1161       C  0.05400415  0.72309322  0.19149107    -0.16190
C1162       C  0.01433240  0.71485853  0.17432285     0.36140
N1163       N  0.00853252  0.72157334  0.12928871    -0.90440
H1164       H  0.94930066  0.69480405  0.18819182     0.17250
H1165       H  0.08770065  0.72145109  0.24855719     0.17240
N1166       N  0.02590360  0.69203577  0.30817903    -0.89470
H1167       H  0.98633470  0.69409824  0.11638480     0.34620
H1168       H  0.03605816  0.73004432  0.11123058     0.39720
H1169       H  0.02183902  0.71319644  0.32637628     0.39340
H1170       H  0.05649838  0.69690857  0.31463818     0.34230
C1171       C  0.96101913  0.65677147  0.48462669    -0.27500
C1172       C  0.93698833  0.67319298  0.50411367    -0.15580
C1173       C  0.95025782  0.69230198  0.54449422     0.35050
C1174       C  0.99010425  0.70009443  0.56003646    -0.26950
C1175       C  0.01825122  0.69283647  0.53447954    -0.16190
C1176       C  0.00181676  0.66695803  0.49888323     0.36140
N1177       N  0.02724307  0.65494418  0.47326804    -0.90440
H1178       H  0.95013106  0.63965113  0.45490767     0.17250
H1179       H  0.00223019  0.71866432  0.58820181     0.17240
N1180       N  0.92648790  0.70730439  0.56847779    -0.89470
H1181       H  0.01209302  0.62357107  0.47314660     0.34620
H1182       H  0.05640038  0.66378777  0.48809874     0.39720
H1183       H  0.89757999  0.69964222  0.55374681     0.39340
H1184       H  0.94372212  0.73863822  0.56828026     0.34230
C1185       C  0.84783495  0.53260613  0.63397996    -0.27500
C1186       C  0.85434032  0.56803258  0.65544116    -0.15580
C1187       C  0.85957406  0.60077528  0.62830115     0.35050
C1188       C  0.85775920  0.59715262  0.58234142    -0.26950
C1189       C  0.85026802  0.56161836  0.56085508    -0.16190
C1190       C  0.84576262  0.52897110  0.58767271     0.36140
N1191       N  0.83695598  0.49095685  0.56937682    -0.90440
H1192       H  0.84228099  0.50661940  0.65346106     0.17250
H1193       H  0.85994064  0.62209996  0.56312806     0.17240
N1194       N  0.86505850  0.63794643  0.64606326    -0.89470
H1195       H  0.86197858  0.48552581  0.57763033     0.34620
H1196       H  0.83636602  0.49185539  0.53547569     0.39720
H1197       H  0.86715626  0.63815165  0.67982670     0.39340
H1198       H  0.83828605  0.64073454  0.63828781     0.34230
C1199       C  0.72778537  0.51504811  0.12490073    -0.27500
C1200       C  0.70946273  0.53325024  0.15094982    -0.15580
C1201       C  0.69265523  0.55556649  0.12884820     0.35050
C1202       C  0.69802958  0.56187523  0.08271045    -0.26950
C1203       C  0.71923762  0.54579712  0.05745016    -0.16190
C1204       C  0.73238906  0.52046341  0.07937012     0.36140
N1205       N  0.75097386  0.49963834  0.05657531    -0.90440
H1206       H  0.74009184  0.49698395  0.14038324     0.17250
H1207       H  0.68772655  0.58134323  0.06688785     0.17240
N1208       N  0.67218535  0.57356283  0.15330890    -0.89470
H1209       H  0.78306405  0.51330588  0.06437350     0.34620
H1210       H  0.74840248  0.50127493  0.02292955     0.39720
H1211       H  0.64489148  0.55032076  0.16704990     0.39340
H1212       H  0.66218569  0.58938002  0.13262778     0.34230
loop_ 
_geom_bond_atom_site_label_1 
_geom_bond_atom_site_label_2 
_geom_bond_distance 
_geom_bond_site_symmetry_2 
_ccdc_geom_bond_type 
N1            N2   1.307       .  A
N1            N7   1.321       .  A
N1          Mn30   2.164       .  S
N2            C9   1.336       .  A
N3            N5   1.314       .  A
N3            N4   1.325       .  A
N3          Mn19   2.158       .  S
N4           C10   1.346       .  A
N5            N6   1.341       .  A
N5          Mn30   2.312       .  S
N6           C10   1.371       .  A
N7            N8   1.331       .  A
N7          Mn19   2.261       .  S
N8            C9   1.361       .  A
C9         C1172   1.487       .  S
C10        C1189   1.530       .  S
N11          N17   1.326       .  A
N11          N12   1.313       .  A
N11         Mn41   2.200       .  S
N12          C20   1.349       .  A
N13          N14   1.318       .  A
N13          N15   1.319       .  A
N13         Mn19   2.187       .  S
N14          C21   1.348       .  A
N15          N16   1.327       .  A
N15         Mn41   2.224       .  S
N16          C21   1.354       .  A
N17          N18   1.318       .  A
N17         Mn19   2.209       .  S
N18          C20   1.346       .  A
Mn19        Cl43   2.536       .  S
C20        C1102   1.446       .  S
C21        C1130   1.490       .  S
N22          N23   1.314       .  A
N22          N28   1.324       .  A
N22         Mn30   2.185       .  S
N23          C31   1.346       .  A
N24          N26   1.312       .  A
N24          N25   1.315       .  A
N24         Mn42   2.157       .  S
N25          C32   1.346       .  A
N26          N27   1.325       .  A
N26         Mn30   2.209       .  S
N27          C32   1.356       .  A
N28          N29   1.324       .  A
N28         Mn42   2.248       .  S
N29          C31   1.356       .  A
Mn30        Cl43   2.531       .  S
C31        C1116   1.466       .  S
C32        C1158   1.486       .  S
N33          N34   1.308       .  A
N33          N39   1.319       .  A
N33         Mn41   2.141       .  S
N34          C44   1.341       .  A
N35          N36   1.321       .  A
N35          N37   1.316       .  A
N35         Mn42   2.162       .  S
N36          C45   1.344       .  A
N37          N38   1.343       .  A
N37         Mn41   2.296       .  S
N38          C45   1.370       .  A
N39          N40   1.332       .  A
N39         Mn42   2.278       .  S
N40          C44   1.366       .  A
Mn41        Cl43   2.543       .  S
Mn42        Cl43   2.524       .  S
C44        C1147   1.481       .  S
C45        C1200   1.532       .  S
N46          N47   1.332       .  A
N46          N52   1.311       .  A
N46         Mn75   2.236       .  S
N47          C54   1.364       .  A
N48          N50   1.324       .  A
N48          N49   1.325       .  A
N48         Mn64   2.241       .  S
N49          C55   1.358       .  A
N50          N51   1.314       .  A
N50         Mn75   2.204       .  S
N51          C55   1.349       .  A
N52          N53   1.302       .  A
N52         Mn64   2.102       .  S
N53          C54   1.332       .  A
C54        C1060   1.463       .  S
C55        C1021   1.483       .  S
N56          N62   1.319       .  A
N56          N57   1.342       .  A
N56         Mn86   2.322       .  S
N57          C65   1.371       .  A
N58          N59   1.326       .  A
N58          N60   1.316       .  A
N58         Mn64   2.256       .  S
N59          C66   1.359       .  A
N60          N61   1.308       .  A
N60         Mn86   2.140       .  S
N61          C66   1.345       .  A
N62          N63   1.326       .  A
N62         Mn64   2.172       .  S
N63          C65   1.346       .  A
Mn64        Cl88   2.516       .  S
C65        C1186   1.533       .  S
C66        C1074   1.463       .  S
N67          N68   1.340       .  A
N67          N73   1.314       .  A
N67         Mn75   2.282       .  S
N68          C76   1.371   1_556  A
N69          N71   1.315       .  A
N69          N70   1.329       .  A
N69         Mn87   2.248       .  S
N70          C77   1.363       .  A
N71          N72   1.310       .  A
N71         Mn75   2.158       .  S
N72          C77   1.345       .  A
N73          N74   1.322   1_556  A
N73         Mn87   2.192       .  S
N74          C76   1.349       .  A
Mn75        Cl88   2.582       .  S
C76        C1203   1.526       .  S
C77        C1049   1.475       .  S
N78          N79   1.336       .  A
N78          N84   1.313       .  A
N78         Mn86   2.264       .  S
N79          C89   1.367       .  A
N80          N81   1.322       .  A
N80          N82   1.328       .  A
N80         Mn87   2.234       .  S
N81          C90   1.350       .  A
N82          N83   1.314       .  A
N82         Mn86   2.191       .  S
N83          C90   1.345       .  A
N84          N85   1.311       .  A
N84         Mn87   2.141       .  S
N85          C89   1.339       .  A
Mn86        Cl88   2.581       .  S
Mn87        Cl88   2.512       .  S
C89        C1088   1.495   1_655  S
C90        C1032   1.463       .  S
N91          N92   1.322       .  A
N91          N97   1.311       .  A
N91        Mn120   2.195       .  S
N92          C99   1.350       .  A
N93          N95   1.310       .  A
N93          N94   1.320       .  A
N93        Mn109   2.196       .  S
N94         C100   1.352       .  A
N95          N96   1.325       .  A
N95        Mn120   2.195       .  S
N96         C100   1.355       .  A
N97          N98   1.324       .  A
N97        Mn109   2.213       .  S
N98          C99   1.360       .  A
C99        C1091   1.501   1_554  S
C100        C979   1.488   1_565  S
N101        N107   1.313       .  A
N101        N102   1.316       .  A
N101       Mn131   2.184       .  S
N102        C110   1.351       .  A
N103        N104   1.314       .  A
N103        N105   1.317       .  A
N103       Mn109   2.174       .  S
N104        C111   1.345       .  A
N105        N106   1.325       .  A
N105       Mn131   2.219       .  S
N106        C111   1.356       .  A
N107        N108   1.317       .  A
N107       Mn109   2.182       .  S
N108        C110   1.352       .  A
Mn109      Cl133   2.542       .  S
C110       C1004   1.474       .  S
C111       C1161   1.469       .  S
N112        N113   1.313       .  A
N112        N118   1.316       .  A
N112       Mn120   2.153       .  S
N113        C121   1.342       .  A
N114        N116   1.316       .  A
N114        N115   1.331       .  A
N114       Mn132   2.238   1_556  S
N115        C122   1.366       .  A
N116        N117   1.303       .  A
N116       Mn120   2.149   1_556  S
N117        C122   1.337       .  A
N118        N119   1.335       .  A
N118       Mn132   2.289       .  S
N119        C121   1.369       .  A
Mn120      Cl133   2.525       .  S
C121        C962   1.493   1_565  S
C122        C990   1.481       .  S
N123        N124   1.322       .  A
N123        N129   1.323       .  A
N123       Mn131   2.201       .  S
N124        C134   1.347       .  A
N125        N126   1.315       .  A
N125        N127   1.317       .  A
N125       Mn132   2.189       .  S
N126        C135   1.350       .  A
N127        N128   1.322       .  A
N127       Mn131   2.205       .  S
N128        C135   1.352       .  A
N129        N130   1.335       .  A
N129       Mn132   2.300       .  S
N130        C134   1.368       .  A
Mn131      Cl133   2.535       .  S
Mn132      Cl133   2.570       .  S
C134        C948   1.508       .  S
C135        C934   1.464       .  S
N136        N137   1.333       .  A
N136        N142   1.314       .  A
N136       Mn165   2.251       .  S
N137        C144   1.364       .  A
N138        N140   1.314       .  A
N138        N139   1.317       .  A
N138       Mn154   2.181       .  S
N139        C145   1.351       .  A
N140        N141   1.316       .  A
N140       Mn165   2.183       .  S
N141        C145   1.352       .  A
N142        N143   1.307       .  A
N142       Mn154   2.138       .  S
N143        C144   1.338       .  A
C144       C1175   1.476       .  S
C145       C1007   1.471       .  S
N146        N152   1.312       .  A
N146        N147   1.323       .  A
N146       Mn176   2.215       .  S
N147        C155   1.358       .  A
N148        N149   1.319       .  A
N148        N150   1.311       .  A
N148       Mn154   2.195       .  S
N149        C156   1.354       .  A
N150        N151   1.318       .  A
N150       Mn176   2.180       .  S
N151        C156   1.351       .  A
N152        N153   1.312       .  A
N152       Mn154   2.150       .  S
N153        C155   1.345       .  A
Mn154      Cl178   2.542       .  S
C155        C906   1.462   1_565  S
C156       C1077   1.458   1_455  S
N157        N158   1.329       .  A
N157        N163   1.320       .  A
N157       Mn165   2.255       .  S
N158        C166   1.359       .  A
N159        N161   1.313       .  A
N159        N160   1.321       .  A
N159       Mn177   2.196       .  S
N160        C167   1.351       .  A
N161        N162   1.314       .  A
N161       Mn165   2.165       .  S
N162        C167   1.348       .  A
N163        N164   1.320       .  A
N163       Mn177   2.203       .  S
N164        C166   1.352       .  A
Mn165      Cl178   2.535       .  S
C166        C881   1.494       .  S
C167        C895   1.457       .  S
N168        N169   1.322       .  A
N168        N174   1.315       .  A
N168       Mn176   2.233       .  S
N169        C179   1.361       .  A
N170        N171   1.328       .  A
N170        N172   1.318       .  A
N170       Mn177   2.226       .  S
N171        C180   1.359       .  A
N172        N173   1.308       .  A
N172       Mn176   2.154       .  S
N173        C180   1.338       .  A
N174        N175   1.311       .  A
N174       Mn177   2.146       .  S
N175        C179   1.343       .  A
Mn176      Cl178   2.520       .  S
Mn177      Cl178   2.543       .  S
C179        C993   1.468       .  S
C180        C920   1.469       .  S
N181        N182   1.324       .  A
N181        N187   1.323       .  A
N181       Mn210   2.238       .  S
N182        C189   1.357       .  A
N183        N185   1.310       .  A
N183        N184   1.330       .  A
N183       Mn199   2.228       .  S
N184        C190   1.362       .  A
N185        N186   1.309       .  A
N185       Mn210   2.138       .  S
N186        C190   1.341       .  A
N187        N188   1.332       .  A
N187       Mn199   2.283       .  S
N188        C189   1.367       .  A
C189        C951   1.524       .  S
C190        C836   1.479       .  S
N191        N197   1.320       .  A
N191        N192   1.331       .  A
N191       Mn221   2.264       .  S
N192        C200   1.364       .  A
N193        N194   1.333       .  A
N193        N195   1.314       .  A
N193       Mn199   2.252       .  S
N194        C201   1.368       .  A
N195        N196   1.309       .  A
N195       Mn221   2.142       .  S
N196        C201   1.333       .  A
N197        N198   1.318       .  A
N197       Mn199   2.205       .  S
N198        C200   1.349       .  A
Mn199      Cl223   2.592       .  S
C200        C864   1.495       .  S
C201        C853   1.479   1_554  S
N202        N203   1.330       .  A
N202        N208   1.323       .  A
N202       Mn210   2.251       .  S
N203        C211   1.355       .  A
N204        N206   1.312       .  A
N204        N205   1.333       .  A
N204       Mn222   2.253       .  S
N205        C212   1.365       .  A
N206        N207   1.318       .  A
N206       Mn210   2.172       .  S
N207        C212   1.347       .  A
N208        N209   1.317       .  A
N208       Mn222   2.179       .  S
N209        C211   1.344       .  A
Mn210      Cl223   2.502       .  S
C211        C794   1.485       .  S
C212        C783   1.498       .  S
N213        N214   1.315   1_554  A
N213        N219   1.318       .  A
N213       Mn221   2.213       .  S
N214        C224   1.350       .  A
N215        N216   1.328       .  A
N215        N217   1.317       .  A
N215       Mn222   2.249       .  S
N216        C225   1.358       .  A
N217        N218   1.320       .  A
N217       Mn221   2.167       .  S
N218        C225   1.346       .  A
N219        N220   1.318   1_554  A
N219       Mn222   2.172       .  S
N220        C224   1.352       .  A
Mn221      Cl223   2.492       .  S
Mn222      Cl223   2.592       .  S
C224        C825   1.460       .  S
C225        C808   1.493       .  S
N226        N227   1.318       .  A
N226        N232   1.314       .  A
N226       Mn255   2.179       .  S
N227        C234   1.349       .  A
N228        N230   1.317       .  A
N228        N229   1.300       .  A
N228       Mn244   2.128       .  S
N229        C235   1.330       .  A
N230        N231   1.334       .  A
N230       Mn255   2.260       .  S
N231        C235   1.368       .  A
N232        N233   1.326       .  A
N232       Mn244   2.225       .  S
N233        C234   1.358       .  A
C234        C769   1.483       .  S
C235        C752   1.475       .  S
N236        N242   1.310       .  A
N236        N237   1.321       .  A
N236       Mn266   2.194       .  S
N237        C245   1.356       .  A
N238        N239   1.312       .  A
N238        N240   1.314       .  A
N238       Mn244   2.155       .  S
N239        C246   1.347       .  A
N240        N241   1.322       .  A
N240       Mn266   2.215       .  S
N241        C246   1.357       .  A
N242        N243   1.319       .  A
N242       Mn244   2.178       .  S
N243        C245   1.348       .  A
Mn244      Cl268   2.496       .  S
C245        C839   1.478       .  S
C246        C892   1.474       .  S
N247        N248   1.327       .  A
N247        N253   1.320       .  A
N247       Mn255   2.229       .  S
N248        C256   1.358       .  A
N249        N251   1.317       .  A
N249        N250   1.318       .  A
N249       Mn267   2.187       .  S
N250        C257   1.351       .  A
N251        N252   1.315       .  A
N251       Mn255   2.188       .  S
N252        C257   1.350       .  A
N253        N254   1.314       .  A
N253       Mn267   2.181       .  S
N254        C256   1.341       .  A
Mn255      Cl268   2.569       .  S
C256        C724   1.473       .  S
C257        C822   1.460       .  S
N258        N259   1.316       .  A
N258        N264   1.312       .  A
N258       Mn266   2.184       .  S
N259        C269   1.349       .  A
N260        N261   1.315       .  A
N260        N262   1.315       .  A
N260       Mn267   2.181       .  S
N261        C270   1.346       .  A
N262        N263   1.327       .  A
N262       Mn266   2.231       .  S
N263        C270   1.360       .  A
N264        N265   1.322       .  A
N264       Mn267   2.193       .  S
N265        C269   1.355       .  A
Mn266      Cl268   2.554       .  S
Mn267      Cl268   2.512       .  S
C269        C713   1.468       .  S
C270        C738   1.474       .  S
N271        N272   1.316       .  A
N271        N277   1.314       .  A
N271       Mn300   2.178       .  S
N272        C279   1.348       .  A
N273        N275   1.321       .  A
N273        N274   1.311       .  A
N273       Mn289   2.165       .  S
N274        C280   1.339       .  A
N275        N276   1.331       .  A
N275       Mn300   2.256       .  S
N276        C280   1.362       .  A
N277        N278   1.326       .  A
N277       Mn289   2.217       .  S
N278        C279   1.356       .  A
C279        C741   1.487       .  S
C280        C797   1.475       .  S
N281        N287   1.311       .  A
N281        N282   1.312       .  A
N281       Mn311   2.151       .  S
N282        C290   1.345       .  A
N283        N284   1.310       .  A
N283        N285   1.316       .  A
N283       Mn289   2.163       .  S
N284        C291   1.345       .  A
N285        N286   1.322       .  A
N285       Mn311   2.198       .  S
N286        C291   1.354       .  A
N287        N288   1.322       .  A
N287       Mn289   2.191       .  S
N288        C290   1.354       .  A
Mn289      Cl313   2.520       .  S
C290        C696   1.465       .  S
C291       C1105   1.464       .  S
N292        N293   1.324       .  A
N292        N298   1.321       .  A
N292       Mn300   2.205       .  S
N293        C301   1.351       .  A
N294        N296   1.318       .  A
N294        N295   1.319       .  A
N294       Mn312   2.196       .  S
N295        C302   1.353       .  A
N296        N297   1.319       .  A
N296       Mn300   2.213       .  S
N297        C302   1.354       .  A
N298        N299   1.314       .  A
N298       Mn312   2.185       .  S
N299        C301   1.344       .  A
Mn300      Cl313   2.548       .  S
C301        C909   1.471       .  S
C302        C685   1.483       .  S
N303        N304   1.315       .  A
N303        N309   1.309       .  A
N303       Mn311   2.168       .  S
N304        C314   1.348       .  A
N305        N306   1.319       .  A
N305        N307   1.315       .  A
N305       Mn312   2.202       .  S
N306        C315   1.353       .  A
N307        N308   1.326       .  A
N307       Mn311   2.220       .  S
N308        C315   1.358       .  A
N309        N310   1.325       .  A
N309       Mn312   2.202       .  S
N310        C314   1.357       .  A
Mn311      Cl313   2.541       .  S
Mn312      Cl313   2.524       .  S
C314        C668   1.474       .  S
C315        C976   1.488       .  S
N316        N317   1.319       .  A
N316        N322   1.316       .  A
N316       Mn345   2.210       .  S
N317        C324   1.351       .  A
N318        N320   1.314       .  A
N318        N319   1.315       .  A
N318       Mn334   2.184       .  S
N319        C325   1.348   1_556  A
N320        N321   1.318       .  A
N320       Mn345   2.180       .  S
N321        C325   1.354   1_556  A
N322        N323   1.321       .  A
N322       Mn334   2.199       .  S
N323        C324   1.356       .  A
C324       C1018   1.481       .  S
C325        C699   1.470       .  S
N326        N332   1.319       .  A
N326        N327   1.334       .  A
N326       Mn356   2.270       .  S
N327        C335   1.369       .  A
N328        N329   1.327       .  A
N328        N330   1.315       .  A
N328       Mn334   2.226       .  S
N329        C336   1.360       .  A
N330        N331   1.315       .  A
N330       Mn356   2.171       .  S
N331        C336   1.342       .  A
N332        N333   1.310       .  A
N332       Mn334   2.163       .  S
N333        C335   1.338       .  A
Mn334      Cl358   2.526       .  S
C335        C811   1.480       .  S
C336        C727   1.470       .  S
N337        N338   1.335       .  A
N337        N343   1.313       .  A
N337       Mn345   2.271       .  S
N338        C346   1.370       .  A
N339        N341   1.309       .  A
N339        N340   1.322       .  A
N339       Mn357   2.177       .  S
N340        C347   1.355       .  A
N341        N342   1.313       .  A
N341       Mn345   2.172       .  S
N342        C347   1.350       .  A
N343        N344   1.312       .  A
N343       Mn357   2.158       .  S
N344        C346   1.342       .  A
Mn345      Cl358   2.543       .  S
C346        C965   1.493       .  S
C347        C654   1.470       .  S
N348        N349   1.319       .  A
N348        N354   1.314       .  A
N348       Mn356   2.198       .  S
N349        C359   1.354       .  A
N350        N351   1.312       .  A
N350        N352   1.318       .  A
N350       Mn357   2.171       .  S
N351        C360   1.339       .  A
N352        N353   1.324       .  A
N352       Mn356   2.223       .  S
N353        C360   1.360       .  A
N354        N355   1.319       .  A
N354       Mn357   2.190       .  S
N355        C359   1.351       .  A
Mn356      Cl358   2.556       .  S
Mn357      Cl358   2.512       .  S
C359        C682   1.481       .  S
C360        C923   1.470       .  S
N361        N362   1.327       .  A
N361        N367   1.316       .  A
N361       Mn390   2.242       .  S
N362        C369   1.363       .  A
N363        N365   1.312       .  A
N363        N364   1.321       .  A
N363       Mn379   2.178       .  S
N364        C370   1.354       .  A
N365        N366   1.308       .  A
N365       Mn390   2.163       .  S
N366        C370   1.345       .  A
N367        N368   1.313       .  A
N367       Mn379   2.171       .  S
N368        C369   1.344       .  A
C369       C1144   1.488       .  S
C370        C643   1.460       .  S
N371        N377   1.314       .  A
N371        N372   1.325       .  A
N371       Mn401   2.216       .  S
N372        C380   1.355       .  A
N373        N374   1.317       .  A
N373        N375   1.311       .  A
N373       Mn379   2.175       .  S
N374        C381   1.347       .  A
N375        N376   1.324       .  A
N375       Mn401   2.210       .  S
N376        C381   1.357       .  A
N377        N378   1.318       .  A
N377       Mn379   2.188       .  S
N378        C380   1.352       .  A
Mn379      Cl403   2.555       .  S
C380        C601   1.482   1_565  S
C381       C1046   1.470       .  S
N382        N383   1.323       .  A
N382        N388   1.317       .  A
N382       Mn390   2.219       .  S
N383        C391   1.354       .  A
N384        N386   1.316       .  A
N384        N385   1.328       .  A
N384       Mn402   2.256       .  S
N385        C392   1.361       .  A
N386        N387   1.323       .  A
N386       Mn390   2.199       .  S
N387        C392   1.354       .  A
N388        N389   1.314       .  A
N388       Mn402   2.175       .  S
N389        C391   1.349       .  A
Mn390      Cl403   2.530       .  S
C391        C937   1.464       .  S
C392        C780   1.502       .  S
N393        N394   1.316       .  A
N393        N399   1.316       .  A
N393       Mn401   2.203   1_556  S
N394        C404   1.356       .  A
N395        N396   1.334       .  A
N395        N397   1.315       .  A
N395       Mn402   2.267       .  S
N396        C405   1.367       .  A
N397        N398   1.314       .  A
N397       Mn401   2.166       .  S
N398        C405   1.342       .  A
N399        N400   1.312       .  A
N399       Mn402   2.152   1_556  S
N400        C404   1.344       .  A
Mn401      Cl403   2.522       .  S
Mn402      Cl403   2.554       .  S
C404        C629   1.459       .  S
C405        C612   1.488   1_565  S
N406        N407   1.316       .  A
N406        N412   1.309       .  A
N406       Mn435   2.166       .  S
N407        C414   1.349       .  A
N408        N410   1.306       .  A
N408        N409   1.308       .  A
N408       Mn424   2.138       .  S
N409        C415   1.342       .  A
N410        N411   1.322       .  A
N410       Mn435   2.187       .  S
N411        C415   1.359       .  A
N412        N413   1.316       .  A
N412       Mn424   2.186       .  S
N413        C414   1.356       .  A
C414       C1063   1.474       .  S
C415        C587   1.448       .  S
N416        N422   1.317       .  A
N416        N417   1.312       .  A
N416       Mn446   2.169       .  S
N417        C425   1.349       .  A
N418        N419   1.309       .  A
N418        N420   1.314       .  A
N418       Mn424   2.140       .  S
N419        C426   1.338       .  A
N420        N421   1.331       .  A
N420       Mn446   2.245       .  S
N421        C426   1.362       .  A
N422        N423   1.317       .  A
N422       Mn424   2.197       .  S
N423        C425   1.350       .  A
Mn424      Cl448   2.527       .  S
C425        C640   1.449       .  S
C426       C1133   1.473       .  S
N427        N428   1.306       .  A
N427        N433   1.317       .  A
N427       Mn435   2.146       .  S
N428        C436   1.334       .  A
N429        N431   1.312       .  A
N429        N430   1.314       .  A
N429       Mn447   2.146       .  S
N430        C437   1.347       .  A
N431        N432   1.316       .  A
N431       Mn435   2.188       .  S
N432        C437   1.350       .  A
N433        N434   1.331       .  A
N433       Mn447   2.258       .  S
N434        C436   1.367       .  A
Mn435      Cl448   2.510       .  S
C436        C570   1.476   1_565  S
C437        C626   1.464       .  S
N438        N439   1.315       .  A
N438        N444   1.318       .  A
N438       Mn446   2.179       .  S
N439        C449   1.348       .  A
N440        N441   1.322       .  A
N440        N442   1.321       .  A
N440       Mn447   2.204       .  S
N441        C450   1.352       .  A
N442        N443   1.328       .  A
N442       Mn446   2.249       .  S
N443        C450   1.356       .  A
N444        N445   1.324       .  A
N444       Mn447   2.230       .  S
N445        C449   1.355       .  A
Mn446      Cl448   2.538       .  S
Mn447      Cl448   2.557       .  S
C449        C710   1.467       .  S
C450        C878   1.493       .  S
N451        N452   1.320       .  A
N451        N457   1.319       .  A
N451       Mn480   2.205       .  S
N452        C459   1.352       .  A
N453        N455   1.314       .  A
N453        N454   1.327       .  A
N453       Mn469   2.229       .  S
N454        C460   1.360       .  A
N455        N456   1.309       .  A
N455       Mn480   2.143       .  S
N456        C460   1.340       .  A
N457        N458   1.318       .  A
N457       Mn469   2.199       .  S
N458        C459   1.353       .  A
C459       C1119   1.483       .  S
C460        C556   1.464       .  S
N461        N467   1.318       .  A
N461        N462   1.334       .  A
N461       Mn491   2.268       .  S
N462        C470   1.367       .  A
N463        N464   1.332       .  A
N463        N465   1.312       .  A
N463       Mn469   2.257       .  S
N464        C471   1.371       .  A
N465        N466   1.305       .  A
N465       Mn491   2.115       .  S
N466        C471   1.333       .  A
N467        N468   1.314       .  A
N467       Mn469   2.176       .  S
N468        C470   1.343       .  A
Mn469      Cl493   2.549       .  S
C470        C867   1.488       .  S
C471        C755   1.479       .  S
N472        N473   1.328       .  A
N472        N478   1.315       .  A
N472       Mn480   2.228       .  S
N473        C481   1.357       .  A
N474        N476   1.311       .  A
N474        N475   1.325       .  A
N474       Mn492   2.199       .  S
N475        C482   1.356       .  A
N476        N477   1.315       .  A
N476       Mn480   2.180       .  S
N477        C482   1.350       .  A
N478        N479   1.315       .  A
N478       Mn492   2.173       .  S
N479        C481   1.346       .  A
Mn480      Cl493   2.514       .  S
C481        C598   1.478       .  S
C482        C671   1.477       .  S
N483        N484   1.322       .  A
N483        N489   1.316       .  A
N483       Mn491   2.230       .  S
N484        C494   1.354       .  A
N485        N486   1.313       .  A
N485        N487   1.317       .  A
N485       Mn492   2.196       .  S
N486        C495   1.345       .  A
N487        N488   1.317       .  A
N487       Mn491   2.164       .  S
N488        C495   1.348       .  A
N489        N490   1.324       .  A
N489       Mn492   2.200       .  S
N490        C494   1.356       .  A
Mn491      Cl493   2.517       .  S
Mn492      Cl493   2.548       .  S
C494        C545   1.490       .  S
C495        C584   1.475       .  S
N496        N497   1.320       .  A
N496        N502   1.317       .  A
N496       Mn525   2.203       .  S
N497        C504   1.351       .  A
N498        N500   1.316       .  A
N498        N499   1.304       .  A
N498       Mn514   2.129       .  S
N499        C505   1.330       .  A
N500        N501   1.335       .  A
N500       Mn525   2.273       .  S
N501        C505   1.371       .  A
N502        N503   1.325       .  A
N502       Mn514   2.219       .  S
N503        C504   1.356       .  A
C504        C766   1.481       .  S
C505        C850   1.475       .  S
N506        N512   1.314       .  A
N506        N507   1.323       .  A
N506       Mn536   2.204       .  S
N507        C515   1.359   1_556  A
N508        N509   1.313       .  A
N508        N510   1.315       .  A
N508       Mn514   2.156       .  S
N509        C516   1.345       .  A
N510        N511   1.322       .  A
N510       Mn536   2.207       .  S
N511        C516   1.352       .  A
N512        N513   1.314       .  A
N512       Mn514   2.177       .  S
N513        C515   1.343   1_556  A
Mn514      Cl538   2.479       .  S
C515        C559   1.467       .  S
C516       C1035   1.455       .  S
N517        N518   1.330       .  A
N517        N523   1.319       .  A
N517       Mn525   2.254       .  S
N518        C526   1.364       .  A
N519        N521   1.314       .  A
N519        N520   1.325       .  A
N519       Mn537   2.233       .  S
N520        C527   1.357       .  A
N521        N522   1.320       .  A
N521       Mn525   2.186       .  S
N522        C527   1.353       .  A
N523        N524   1.307       .  A
N523       Mn537   2.162       .  S
N524        C526   1.332       .  A
Mn525      Cl538   2.590       .  S
C526        C573   1.486       .  S
C527        C542   1.492       .  S
N528        N529   1.317       .  A
N528        N534   1.314       .  A
N528       Mn536   2.204       .  S
N529        C539   1.355       .  A
N530        N531   1.317       .  A
N530        N532   1.310       .  A
N530       Mn537   2.182       .  S
N531        C540   1.349       .  A
N532        N533   1.331       .  A
N532       Mn536   2.236       .  S
N533        C540   1.365       .  A
N534        N535   1.317       .  A
N534       Mn537   2.165       .  S
N535        C539   1.349       .  A
Mn536      Cl538   2.579       .  S
Mn537      Cl538   2.474       .  S
C539        C657   1.464       .  S
C540        C615   1.505       .  S
C541        C542   1.407       .  A
C541        C546   1.410       .  A
C541        H548   1.084       .  S
C542        C543   1.420       .  A
C543        C544   1.404       .  A
C543        N550   1.441       .  S
C544        C545   1.405       .  A
C544        H549   1.084       .  S
C545        C546   1.420       .  A
C546        N547   1.440       .  S
N547        H551   1.045       .  S
N547        H552   1.041       .  S
N550        H553   1.042       .  S
N550        H554   1.046       .  S
C555        C556   1.404       .  A
C555        C560   1.399       .  A
C555        H562   1.085       .  S
C556        C557   1.406       .  A
C557        C558   1.405       .  A
C557        N564   1.438       .  S
C558        C559   1.407       .  A
C558        H563   1.084       .  S
C559        C560   1.405       .  A
C560        N561   1.438       .  S
N561        H565   1.046       .  S
N561        H566   1.046       .  S
N564        H567   1.046       .  S
N564        H568   1.046       .  S
C569        C570   1.408       .  A
C569        C574   1.407       .  A
C569        H576   1.083       .  S
C570        C571   1.408       .  A
C571        C572   1.407       .  A
C571        N578   1.438   1_545  S
C572        C573   1.412       .  A
C572        H577   1.084       .  S
C573        C574   1.412       .  A
C574        N575   1.437       .  S
N575        H579   1.046       .  S
N575        H580   1.045       .  S
N578        H581   1.046       .  S
N578        H582   1.046       .  S
C583        C584   1.405       .  A
C583        C588   1.404       .  A
C583        H590   1.084       .  S
C584        C585   1.420       .  A
C585        C586   1.389       .  A
C585        N592   1.434       .  S
C586        C587   1.393   1_545  A
C586        H591   1.085   1_545  S
C587        C588   1.407   1_565  A
C588        N589   1.438   1_545  S
N589        H593   1.046   1_565  S
N589        H594   1.045       .  S
N592        H595   1.046   1_545  S
N592        H596   1.046       .  S
C597        C598   1.403       .  A
C597        C602   1.401       .  A
C597        H604   1.084       .  S
C598        C599   1.408       .  A
C599        C600   1.414       .  A
C599        N606   1.437       .  S
C600        C601   1.408       .  A
C600        H605   1.082       .  S
C601        C602   1.409       .  A
C602        N603   1.438       .  S
N603        H607   1.046       .  S
N603        H608   1.046       .  S
N606        H609   1.046       .  S
N606        H610   1.045       .  S
C611        C612   1.406       .  A
C611        C616   1.412       .  A
C611        H618   1.082       .  S
C612        C613   1.408   1_554  A
C613        C614   1.405       .  A
C613        N620   1.433   1_545  S
C614        C615   1.413       .  A
C614        H619   1.084       .  S
C615        C616   1.425   1_556  A
C616        N617   1.437       .  S
N617        H621   1.046       .  S
N617        H622   1.038       .  S
N620        H623   1.045       .  S
N620        H624   1.046       .  S
C625        C626   1.401       .  A
C625        C630   1.393       .  A
C625        H632   1.084       .  S
C626        C627   1.408       .  A
C627        C628   1.393       .  A
C627        N634   1.432       .  S
C628        C629   1.397       .  A
C628        H633   1.084       .  S
C629        C630   1.410       .  A
C630        N631   1.433       .  S
N631        H635   1.046       .  S
N631        H636   1.046       .  S
N634        H637   1.042       .  S
N634        H638   1.045       .  S
C639        C640   1.402       .  A
C639        C644   1.405       .  A
C639        H646   1.084       .  S
C640        C641   1.405       .  A
C641        C642   1.385       .  A
C641        N648   1.441       .  S
C642        C643   1.402       .  A
C642        H647   1.083       .  S
C643        C644   1.409       .  A
C644        N645   1.437       .  S
N645        H649   1.046       .  S
N645        H650   1.046       .  S
N648        H651   1.046       .  S
N648        H652   1.046       .  S
C653        C654   1.405       .  A
C653        C658   1.399       .  A
C653        H660   1.084       .  S
C654        C655   1.406       .  A
C655        C656   1.399       .  A
C655        N662   1.432       .  S
C656        C657   1.403       .  A
C656        H661   1.084       .  S
C657        C658   1.406       .  A
C658        N659   1.438       .  S
N659        H663   1.046       .  S
N659        H664   1.045       .  S
N662        H665   1.046       .  S
N662        H666   1.045       .  S
C667        C668   1.404       .  A
C667        C672   1.411       .  A
C667        H674   1.084       .  S
C668        C669   1.414       .  A
C669        C670   1.396       .  A
C669        N676   1.438       .  S
C670        C671   1.401       .  A
C670        H675   1.084       .  S
C671        C672   1.412       .  A
C672        N673   1.437       .  S
N673        H677   1.046       .  S
N673        H678   1.045       .  S
N676        H679   1.044       .  S
N676        H680   1.045       .  S
C681        C682   1.403       .  A
C681        C686   1.400       .  A
C681        H688   1.084       .  S
C682        C683   1.414       .  A
C683        C684   1.406       .  A
C683        N690   1.438       .  S
C684        C685   1.406       .  A
C684        H689   1.083       .  S
C685        C686   1.410       .  A
C686        N687   1.431       .  S
N687        H691   1.045       .  S
N687        H692   1.046       .  S
N690        H693   1.045       .  S
N690        H694   1.046       .  S
C695        C696   1.403       .  A
C695        C700   1.396       .  A
C695        H702   1.084       .  S
C696        C697   1.406       .  A
C697        C698   1.401       .  A
C697        N704   1.438       .  S
C698        C699   1.407       .  A
C698        H703   1.083       .  S
C699        C700   1.408       .  A
C700        N701   1.438       .  S
N701        H705   1.046       .  S
N701        H706   1.046       .  S
N704        H707   1.046       .  S
N704        H708   1.046       .  S
C709        C710   1.402       .  A
C709        C714   1.403       .  A
C709        H716   1.084       .  S
C710        C711   1.407       .  A
C711        C712   1.405       .  A
C711        N718   1.437       .  S
C712        C713   1.403       .  A
C712        H717   1.084       .  S
C713        C714   1.409       .  A
C714        N715   1.439       .  S
N715        H719   1.046       .  S
N715        H720   1.046       .  S
N718        H721   1.045       .  S
N718        H722   1.046       .  S
C723        C724   1.404       .  A
C723        C728   1.407       .  A
C723        H730   1.084       .  S
C724        C725   1.410       .  A
C725        C726   1.407       .  A
C725        N732   1.437       .  S
C726        C727   1.402       .  A
C726        H731   1.084       .  S
C727        C728   1.409       .  A
C728        N729   1.438       .  S
N729        H733   1.046       .  S
N729        H734   1.046       .  S
N732        H735   1.046       .  S
N732        H736   1.044       .  S
C737        C738   1.398       .  A
C737        C742   1.401       .  A
C737        H744   1.085       .  S
C738        C739   1.416       .  A
C739        C740   1.410       .  A
C739        N746   1.437       .  S
C740        C741   1.406       .  A
C740        H745   1.084       .  S
C741        C742   1.417       .  A
C742        N743   1.438       .  S
N743        H747   1.046       .  S
N743        H748   1.045       .  S
N746        H749   1.044       .  S
N746        H750   1.046       .  S
C751        C752   1.417       .  A
C751        C756   1.400   1_455  A
C751        H758   1.084       .  S
C752        C753   1.397       .  A
C753        C754   1.405   1_455  A
C753        N760   1.437       .  S
C754        C755   1.420       .  A
C754        H759   1.083       .  S
C755        C756   1.398       .  A
C756        N757   1.437       .  S
N757        H761   1.046       .  S
N757        H762   1.046       .  S
N760        H763   1.045       .  S
N760        H764   1.046       .  S
C765        C766   1.404   1_455  A
C765        C770   1.408       .  A
C765        H772   1.084       .  S
C766        C767   1.417       .  A
C767        C768   1.406   1_655  A
C767        N774   1.438       .  S
C768        C769   1.404       .  A
C768        H773   1.084       .  S
C769        C770   1.411       .  A
C770        N771   1.438       .  S
N771        H775   1.046       .  S
N771        H776   1.045       .  S
N774        H777   1.044       .  S
N774        H778   1.046       .  S
C779        C780   1.405       .  A
C779        C784   1.409       .  A
C779        H786   1.084       .  S
C780        C781   1.424       .  A
C781        C782   1.414       .  A
C781        N788   1.439       .  S
C782        C783   1.405       .  A
C782        H787   1.084       .  S
C783        C784   1.421       .  A
C784        N785   1.438       .  S
N785        H789   1.046       .  S
N785        H790   1.043       .  S
N788        H791   1.043       .  S
N788        H792   1.046       .  S
C793        C794   1.399       .  A
C793        C798   1.408       .  A
C793        H800   1.084       .  S
C794        C795   1.416       .  A
C795        C796   1.406       .  A
C795        N802   1.438       .  S
C796        C797   1.399       .  A
C796        H801   1.084       .  S
C797        C798   1.422       .  A
C798        N799   1.436       .  S
N799        H803   1.045       .  S
N799        H804   1.043       .  S
N802        H805   1.046       .  S
N802        H806   1.046       .  S
C807        C808   1.401       .  A
C807        C812   1.408       .  A
C807        H814   1.084       .  S
C808        C809   1.419       .  A
C809        C810   1.412   1_554  A
C809        N816   1.438   1_554  S
C810        C811   1.401       .  A
C810        H815   1.084       .  S
C811        C812   1.419   1_556  A
C812        N813   1.437       .  S
N813        H817   1.044       .  S
N813        H818   1.045       .  S
N816        H819   1.045   1_556  S
N816        H820   1.046       .  S
C821        C822   1.402       .  A
C821        C826   1.397       .  A
C821        H828   1.084       .  S
C822        C823   1.412       .  A
C823        C824   1.393       .  A
C823        N830   1.440       .  S
C824        C825   1.402       .  A
C824        H829   1.085       .  S
C825        C826   1.414       .  A
C826        N827   1.440       .  S
N827        H831   1.046       .  S
N827        H832   1.041       .  S
N830        H833   1.043       .  S
N830        H834   1.046       .  S
C835        C836   1.407       .  A
C835        C840   1.398       .  A
C835        H842   1.084       .  S
C836        C837   1.408       .  A
C837        C838   1.411       .  A
C837        N844   1.437       .  S
C838        C839   1.409       .  A
C838        H843   1.083       .  S
C839        C840   1.407       .  A
C840        N841   1.439       .  S
N841        H845   1.046       .  S
N841        H846   1.046       .  S
N844        H847   1.045       .  S
N844        H848   1.046       .  S
C849        C850   1.408       .  A
C849        C854   1.408   1_656  A
C849        H856   1.084   1_556  S
C850        C851   1.410   1_655  A
C851        C852   1.412       .  A
C851        N858   1.437       .  S
C852        C853   1.408       .  A
C852        H857   1.084       .  S
C853        C854   1.409   1_556  A
C854        N855   1.438       .  S
N855        H859   1.046   1_455  S
N855        H860   1.045       .  S
N858        H861   1.045       .  S
N858        H862   1.046       .  S
C863        C864   1.406       .  A
C863        C868   1.414   1_455  A
C863        H870   1.084       .  S
C864        C865   1.418       .  A
C865        C866   1.404       .  A
C865        N872   1.434       .  S
C866        C867   1.404   1_455  A
C866        H871   1.084       .  S
C867        C868   1.419       .  A
C868        N869   1.437       .  S
N869        H873   1.045       .  S
N869        H874   1.045       .  S
N872        H875   1.044       .  S
N872        H876   1.046       .  S
C877        C878   1.403       .  A
C877        C882   1.404       .  A
C877        H884   1.085       .  S
C878        C879   1.419       .  A
C879        C880   1.416       .  A
C879        N886   1.437       .  S
C880        C881   1.408       .  A
C880        H885   1.084       .  S
C881        C882   1.420       .  A
C882        N883   1.441       .  S
N883        H887   1.046       .  S
N883        H888   1.042       .  S
N886        H889   1.044       .  S
N886        H890   1.046       .  S
C891        C892   1.406       .  A
C891        C896   1.392       .  A
C891        H898   1.084       .  S
C892        C893   1.411       .  A
C893        C894   1.404       .  A
C893        N900   1.437       .  S
C894        C895   1.403       .  A
C894        H899   1.084       .  S
C895        C896   1.407       .  A
C896        N897   1.438       .  S
N897        H901   1.046       .  S
N897        H902   1.044       .  S
N900        H903   1.045       .  S
N900        H904   1.046       .  S
C905        C906   1.393       .  A
C905        C910   1.396       .  A
C905        H912   1.084       .  S
C906        C907   1.418       .  A
C907        C908   1.402       .  A
C907        N914   1.437   1_545  S
C908        C909   1.396       .  A
C908        H913   1.084       .  S
C909        C910   1.417       .  A
C910        N911   1.436       .  S
N911        H915   1.046       .  S
N911        H916   1.043       .  S
N914        H917   1.044       .  S
N914        H918   1.045       .  S
C919        C920   1.406       .  A
C919        C924   1.411       .  A
C919        H926   1.084       .  S
C920        C921   1.408   1_565  A
C921        C922   1.396       .  A
C921        N928   1.439       .  S
C922        C923   1.404       .  A
C922        H927   1.084       .  S
C923        C924   1.411   1_545  A
C924        N925   1.437       .  S
N925        H929   1.046       .  S
N925        H930   1.045       .  S
N928        H931   1.046       .  S
N928        H932   1.046       .  S
C933        C934   1.403       .  A
C933        C938   1.406       .  A
C933        H940   1.084       .  S
C934        C935   1.409       .  A
C935        C936   1.392       .  A
C935        N942   1.433       .  S
C936        C937   1.400       .  A
C936        H941   1.084       .  S
C937        C938   1.409       .  A
C938        N939   1.437       .  S
N939        H943   1.046       .  S
N939        H944   1.045       .  S
N942        H945   1.046       .  S
N942        H946   1.044       .  S
C947        C948   1.408       .  A
C947        C952   1.417       .  A
C947        H954   1.084       .  S
C948        C949   1.413       .  A
C949        C950   1.420       .  A
C949        N956   1.437       .  S
C950        C951   1.415       .  A
C950        H955   1.083       .  S
C951        C952   1.423       .  A
C952        N953   1.431       .  S
N953        H957   1.045       .  S
N953        H958   1.045       .  S
N956        H959   1.045       .  S
N956        H960   1.046       .  S
C961        C962   1.400   1_556  A
C961        C966   1.413       .  A
C961        H968   1.084   1_545  S
C962        C963   1.425       .  A
C963        C964   1.410       .  A
C963        N970   1.438       .  S
C964        C965   1.400   1_554  A
C964        H969   1.084       .  S
C965        C966   1.419       .  A
C966        N967   1.438       .  S
N967        H971   1.046       .  S
N967        H972   1.045       .  S
N970        H973   1.044       .  S
N970        H974   1.045       .  S
C975        C976   1.407       .  A
C975        C980   1.410       .  A
C975        H982   1.084       .  S
C976        C977   1.417       .  A
C977        C978   1.401       .  A
C977        N984   1.440       .  S
C978        C979   1.405       .  A
C978        H983   1.084   1_545  S
C979        C980   1.419       .  A
C980        N981   1.438       .  S
N981        H985   1.046       .  S
N981        H986   1.042       .  S
N984        H987   1.042       .  S
N984        H988   1.046       .  S
C989        C990   1.411       .  A
C989        C994   1.391       .  A
C989        H996   1.083       .  S
C990        C991   1.415       .  A
C991        C992   1.405       .  A
C991        N998   1.436       .  S
C992        C993   1.410       .  A
C992        H997   1.084       .  S
C993        C994   1.403       .  A
C994        N995   1.439       .  S
N995        H999   1.046       .  S
N995       H1000   1.046       .  S
N998       H1001   1.041       .  S
N998       H1002   1.045       .  S
C1003      C1004   1.405       .  A
C1003      C1008   1.400       .  A
C1003      H1010   1.083       .  S
C1004      C1005   1.416       .  A
C1005      C1006   1.392       .  A
C1005      N1012   1.433       .  S
C1006      C1007   1.402       .  A
C1006      H1011   1.084       .  S
C1007      C1008   1.410       .  A
C1008      N1009   1.438       .  S
N1009      H1013   1.046       .  S
N1009      H1014   1.046       .  S
N1012      H1015   1.046       .  S
N1012      H1016   1.044       .  S
C1017      C1018   1.406       .  A
C1017      C1022   1.406       .  A
C1017      H1024   1.084       .  S
C1018      C1019   1.412       .  A
C1019      C1020   1.395       .  A
C1019      N1026   1.433       .  S
C1020      C1021   1.406       .  A
C1020      H1025   1.084       .  S
C1021      C1022   1.421       .  A
C1022      N1023   1.439       .  S
N1023      H1027   1.046       .  S
N1023      H1028   1.039       .  S
N1026      H1029   1.046       .  S
N1026      H1030   1.045       .  S
C1031      C1032   1.396       .  A
C1031      C1036   1.397       .  A
C1031      H1038   1.084       .  S
C1032      C1033   1.414       .  A
C1033      C1034   1.399       .  A
C1033      N1040   1.439       .  S
C1034      C1035   1.395       .  A
C1034      H1039   1.084       .  S
C1035      C1036   1.417       .  A
C1036      N1037   1.439       .  S
N1037      H1041   1.046       .  S
N1037      H1042   1.044       .  S
N1040      H1043   1.046       .  S
N1040      H1044   1.046       .  S
C1045      C1046   1.406   1_556  A
C1045      C1050   1.415       .  A
C1045      H1052   1.083       .  S
C1046      C1047   1.415       .  A
C1047      C1048   1.392   1_554  A
C1047      N1054   1.440       .  S
C1048      C1049   1.401       .  A
C1048      H1053   1.085       .  S
C1049      C1050   1.410       .  A
C1050      N1051   1.436       .  S
N1051      H1055   1.046       .  S
N1051      H1056   1.046       .  S
N1054      H1057   1.042       .  S
N1054      H1058   1.045       .  S
C1059      C1060   1.405       .  A
C1059      C1064   1.392       .  A
C1059      H1066   1.085       .  S
C1060      C1061   1.403       .  A
C1061      C1062   1.409       .  A
C1061      N1068   1.437       .  S
C1062      C1063   1.410       .  A
C1062      H1067   1.083       .  S
C1063      C1064   1.407       .  A
C1064      N1065   1.439       .  S
N1065      H1069   1.045       .  S
N1065      H1070   1.046       .  S
N1068      H1071   1.046       .  S
N1068      H1072   1.045       .  S
C1073      C1074   1.404       .  A
C1073      C1078   1.412       .  A
C1073      H1080   1.083       .  S
C1074      C1075   1.408       .  A
C1075      C1076   1.387       .  A
C1075      N1082   1.434       .  S
C1076      C1077   1.391       .  A
C1076      H1081   1.082   1_655  S
C1077      C1078   1.409       .  A
C1078      N1079   1.436       .  S
N1079      H1083   1.046       .  S
N1079      H1084   1.045       .  S
N1082      H1085   1.046       .  S
N1082      H1086   1.046       .  S
C1087      C1088   1.403       .  A
C1087      C1092   1.420       .  A
C1087      H1094   1.083       .  S
C1088      C1089   1.417       .  A
C1089      C1090   1.400   1_556  A
C1089      N1096   1.434   1_456  S
C1090      C1091   1.400   1_554  A
C1090      H1095   1.083       .  S
C1091      C1092   1.425       .  A
C1092      N1093   1.436       .  S
N1093      H1097   1.046       .  S
N1093      H1098   1.043       .  S
N1096      H1099   1.046       .  S
N1096      H1100   1.046       .  S
C1101      C1102   1.401       .  A
C1101      C1106   1.401       .  A
C1101      H1108   1.084       .  S
C1102      C1103   1.405       .  A
C1103      C1104   1.389       .  A
C1103      N1110   1.439       .  S
C1104      C1105   1.405       .  A
C1104      H1109   1.084       .  S
C1105      C1106   1.409       .  A
C1106      N1107   1.437       .  S
N1107      H1111   1.046       .  S
N1107      H1112   1.045       .  S
N1110      H1113   1.044       .  S
N1110      H1114   1.046       .  S
C1115      C1116   1.401       .  A
C1115      C1120   1.407       .  A
C1115      H1122   1.084       .  S
C1116      C1117   1.413       .  A
C1117      C1118   1.396       .  A
C1117      N1124   1.440       .  S
C1118      C1119   1.405       .  A
C1118      H1123   1.084       .  S
C1119      C1120   1.416       .  A
C1120      N1121   1.438       .  S
N1121      H1125   1.046       .  S
N1121      H1126   1.046       .  S
N1124      H1127   1.043       .  S
N1124      H1128   1.046       .  S
C1129      C1130   1.406       .  A
C1129      C1134   1.398       .  A
C1129      H1136   1.084       .  S
C1130      C1131   1.413       .  A
C1131      C1132   1.415       .  A
C1131      N1138   1.437       .  S
C1132      C1133   1.407       .  A
C1132      H1137   1.084       .  S
C1133      C1134   1.412       .  A
C1134      N1135   1.439       .  S
N1135      H1139   1.046       .  S
N1135      H1140   1.045       .  S
N1138      H1141   1.046       .  S
N1138      H1142   1.046       .  S
C1143      C1144   1.414       .  A
C1143      C1148   1.405       .  A
C1143      H1150   1.084       .  S
C1144      C1145   1.409       .  A
C1145      C1146   1.396       .  A
C1145      N1152   1.432       .  S
C1146      C1147   1.410       .  A
C1146      H1151   1.084       .  S
C1147      C1148   1.410       .  A
C1148      N1149   1.437       .  S
N1149      H1153   1.046       .  S
N1149      H1154   1.042       .  S
N1152      H1155   1.045       .  S
N1152      H1156   1.045       .  S
C1157      C1158   1.407       .  A
C1157      C1162   1.396   1_655  A
C1157      H1164   1.084       .  S
C1158      C1159   1.415   1_655  A
C1159      C1160   1.409       .  A
C1159      N1166   1.437       .  S
C1160      C1161   1.403       .  A
C1160      H1165   1.084       .  S
C1161      C1162   1.412       .  A
C1162      N1163   1.440       .  S
N1163      H1167   1.046   1_455  S
N1163      H1168   1.044       .  S
N1166      H1169   1.046       .  S
N1166      H1170   1.046       .  S
C1171      C1172   1.417       .  A
C1171      C1176   1.400   1_655  A
C1171      H1178   1.084       .  S
C1172      C1173   1.406       .  A
C1173      C1174   1.404       .  A
C1173      N1180   1.437       .  S
C1174      C1175   1.409   1_655  A
C1174      H1179   1.073   1_655  S
C1175      C1176   1.404       .  A
C1176      N1177   1.437       .  S
N1177      H1181   1.046       .  S
N1177      H1182   1.044       .  S
N1180      H1183   1.043       .  S
N1180      H1184   1.046       .  S
C1185      C1186   1.415       .  A
C1185      C1190   1.431       .  A
C1185      H1192   1.083       .  S
C1186      C1187   1.427       .  A
C1187      C1188   1.420       .  A
C1187      N1194   1.436       .  S
C1188      C1189   1.409       .  A
C1188      H1193   1.082       .  S
C1189      C1190   1.426       .  A
C1190      N1191   1.437       .  S
N1191      H1195   1.045       .  S
N1191      H1196   1.044       .  S
N1194      H1197   1.041       .  S
N1194      H1198   1.045       .  S
C1199      C1200   1.411       .  A
C1199      C1204   1.413       .  A
C1199      H1206   1.084       .  S
C1200      C1201   1.422       .  A
C1201      C1202   1.436       .  A
C1201      N1208   1.434       .  S
C1202      C1203   1.415       .  A
C1202      H1207   1.083       .  S
C1203      C1204   1.422       .  A
C1204      N1205   1.438       .  S
N1205      H1209   1.045       .  S
N1205      H1210   1.043       .  S
N1208      H1211   1.045       .  S
N1208      H1212   1.046       .  S
