geometry optimzed in LAMMPS
_audit_creation_date              2020-11-30 
_audit_creation_method            'lammps2cif' 
_symmetry_space_group_name_H-M    'P1' 
_symmetry_Int_Tables_number       1 
_symmetry_cell_setting            triclinic 
loop_ 
_symmetry_equiv_pos_as_xyz 
  x,y,z 
_cell_length_a                    52.59435229 
_cell_length_b                    52.78257007766846 
_cell_length_c                    53.651953091529656 
_cell_angle_alpha                 89.9905730345653 
_cell_angle_beta                  89.92403014166776 
_cell_angle_gamma                 122.4928566593964 
loop_ 
_atom_site_label 
_atom_site_type_symbol 
_atom_site_fract_x 
_atom_site_fract_y 
_atom_site_fract_z 
_atom_site_charge 
O1          O  0.67344254  0.58591429  0.81553323    -0.56600
C2          C  0.66388010  0.60224436  0.90227234     0.76000
O3          O  0.62011978  0.51258393  0.85845737    -0.57800
C4          C  0.65197390  0.58652051  0.80580586     0.76000
C5          C  0.70224191  0.56085587  0.85788328     0.78400
Cd6        Cd  0.65144233  0.56732961  0.85691469     1.37500
O7          O  0.66671659  0.61419241  0.88112943    -0.56600
O8          O  0.70522280  0.58600414  0.85433666    -0.55400
C9          C  0.59504266  0.51037328  0.86063418     0.78300
O10         O  0.67563770  0.53835545  0.86063806    -0.57800
O11         O  0.65319513  0.57440520  0.90235534    -0.56300
O12         O  0.62990942  0.57973985  0.81998121    -0.56200
O13         O  0.59562944  0.53468932  0.86090387    -0.55400
O14         O  0.95952728  0.57798829  0.82059953    -0.56600
C15         C  0.95504473  0.58873929  0.90271961     0.76000
O16         O  0.87321001  0.52681974  0.86507622    -0.57800
C17         C  0.93964596  0.55867417  0.80583671     0.76000
C18         C  0.93555778  0.50087339  0.86752483     0.78400
Cd19       Cd  0.92853581  0.55077782  0.85912153     1.37500
O20         O  0.96559015  0.59882575  0.88111875    -0.56600
O21         O  0.95811772  0.52714562  0.86362655    -0.55400
C22         C  0.87369092  0.55035535  0.85923524     0.78300
O23         O  0.90996694  0.49781265  0.86820311    -0.57800
O24         O  0.93384782  0.56144347  0.90400707    -0.56300
O25         O  0.91634978  0.53685268  0.81576849    -0.56200
O26         O  0.89901991  0.57324897  0.85350278    -0.55400
O27         O  0.31348776  0.92826368  0.99456122    -0.56600
C28         C  0.31519733  0.95185340  0.92282946     0.76000
O29         O  0.22690339  0.90939614  0.96830238    -0.57800
C30         C  0.30587871  0.93297139  0.01558803     0.76000
C31         C  0.28029492  0.99396438  0.97481791     0.78400
Cd32       Cd  0.28253291  0.94095295  0.96943918     1.37500
O33         O  0.32828635  0.95986015  0.94370226    -0.56600
O34         O  0.30420980  0.99443270  0.97896687    -0.55400
C35         C  0.22514607  0.88458284  0.96728345     0.78300
O36         O  0.25749354  0.96913987  0.96815353    -0.57800
O37         O  0.28677555  0.93804194  0.92320235    -0.56300
O38         O  0.28815719  0.94223263  0.01545749    -0.56200
O39         O  0.24980089  0.88571853  0.96699137    -0.55400
O40         O  0.95478767  0.59686287  0.94655968    -0.56600
C41         C  0.99236807  0.62298989  0.01590692     0.76000
O42         O  0.01376703  0.70073414  0.97199364    -0.57800
C43         C  0.96561392  0.60765677  0.92529695     0.76000
C44         C  0.92956616  0.64971120  0.97355452     0.78400
Cd45       Cd  0.98168487  0.64499185  0.96995951     1.37500
O46         O  0.99860972  0.61722393  0.99469746    -0.56600
O47         O  0.93180137  0.63108924  0.98667633    -0.55400
C48         C  0.03834829  0.70274143  0.96723533     0.78300
O49         O  0.95137747  0.66623864  0.95909069    -0.57800
O50         O  0.98006586  0.63801037  0.01612626    -0.56300
O51         O  0.98494244  0.63557032  0.92451584    -0.56200
O52         O  0.03682023  0.67834038  0.96333723    -0.55400
O53         O  0.30562398  0.92752294  0.05996503    -0.56600
C54         C  0.32462357  0.91926112  0.13276083     0.76000
O55         O  0.29301920  0.84377061  0.09108943    -0.57800
C56         C  0.31527028  0.92565310  0.03883246     0.76000
C57         C  0.37721981  0.89730173  0.07568252     0.78400
Cd58       Cd  0.32364592  0.89857539  0.08214108     1.37500
O59         O  0.30056714  0.89967972  0.12211918    -0.56600
O60         O  0.37861328  0.92194936  0.07736404    -0.55400
C61         C  0.27120880  0.83881728  0.07739882     0.78300
O62         O  0.35123046  0.87350729  0.07665114    -0.57800
O63         O  0.34822143  0.93138424  0.11953563    -0.56300
O64         O  0.33171774  0.91494089  0.03844297    -0.56200
O65         O  0.27404553  0.86105011  0.06587804    -0.55400
O66         O  0.02919194  0.62776936  0.12346346    -0.56600
C67         C  0.00083839  0.61420863  0.03895116     0.76000
O68         O  0.08137272  0.63350737  0.09166903    -0.57800
C69         C  0.00607832  0.60549552  0.13311666     0.76000
C70         C  0.02700422  0.55017491  0.07653060     0.78400
Cd71       Cd  0.02667138  0.60456484  0.08283268     1.37500
O72         O  0.99473812  0.61943408  0.06047447    -0.56600
O73         O  0.00254586  0.54922412  0.07896065    -0.55400
C74         C  0.08667826  0.65663522  0.07982587     0.78300
O75         O  0.05099579  0.57594092  0.07698950    -0.57800
O76         O  0.01622727  0.60235509  0.03808852    -0.56300
O77         O  0.99087390  0.58285983  0.11917703    -0.56200
O78         O  0.06449404  0.65552698  0.06958590    -0.55400
O79         O  0.33359187  0.23654121  0.81510322    -0.56600
C80         C  0.32544014  0.25253675  0.89775932     0.76000
O81         O  0.38785125  0.23904466  0.83926057    -0.57800
C82         C  0.33548005  0.25862007  0.80409173     0.76000
C83         C  0.41585502  0.32218158  0.85805694     0.78400
Cd84       Cd  0.36126556  0.26381198  0.85317951     1.37500
O85         O  0.31285246  0.24255962  0.87681972    -0.56600
O86         O  0.39041296  0.31899975  0.85518664    -0.55400
C87         C  0.37461362  0.21781278  0.85488867     0.78300
O88         O  0.41628463  0.29843761  0.85840793    -0.57800
O89         O  0.35381428  0.26941027  0.89761274    -0.56300
O90         O  0.34712731  0.28279554  0.81638032    -0.56200
O91         O  0.35630490  0.21852548  0.86966152    -0.55400
O92         O  0.32011951  0.95372433  0.87819561    -0.56600
C93         C  0.34414432  0.96340584  0.80573785     0.76000
O94         O  0.39426202  0.03904687  0.84216382    -0.57800
C95         C  0.33250538  0.95995084  0.89948454     0.76000
C96         C  0.42218499  0.98421025  0.86040258     0.78400
Cd97       Cd  0.36859381  0.98535052  0.85510323     1.37500
O98         O  0.35533565  0.95139112  0.81820074    -0.56600
O99         O  0.39630056  0.96031946  0.86066223    -0.55400
C100        C  0.37991264  0.04481491  0.85772427     0.78300
O101        O  0.42335979  0.00865802  0.85768769    -0.57800
O102        O  0.34203033  0.98333038  0.81675392    -0.56300
O103        O  0.36096390  0.97515166  0.89984797    -0.56200
O104        O  0.36188676  0.02377762  0.87208396    -0.55400
O105        O  0.32184892  0.25283803  0.94210409    -0.56600
C106        C  0.30117476  0.25690403  0.01412217     0.76000
O107        O  0.22179444  0.20077001  0.97487280    -0.57800
C108        C  0.30851345  0.24373021  0.92135735     0.76000
C109        C  0.27437403  0.16720628  0.97324637     0.78400
Cd110      Cd  0.27668009  0.22289774  0.96851379     1.37500
O111        O  0.30787813  0.26954459  0.99299175    -0.56600
O112        O  0.29843104  0.19245115  0.97655271    -0.55400
C113        C  0.22175083  0.22300194  0.96610401     0.78300
O114        O  0.25106462  0.16741411  0.96780469    -0.57800
O115        O  0.28434569  0.22860021  0.01422955    -0.56300
O116        O  0.28024576  0.22558417  0.92214699    -0.56200
O117        O  0.24665869  0.24461298  0.95801614    -0.55400
O118        O  0.65335131  0.61925550  0.99696304    -0.56600
C119        C  0.67400324  0.61966943  0.92557471     0.76000
O120        O  0.72407981  0.70927070  0.97330121    -0.57800
C121        C  0.66512637  0.63147596  0.01766597     0.76000
C122        C  0.75485616  0.65518974  0.97599692     0.78400
Cd123      Cd  0.69879107  0.65355222  0.97159201     1.37500
O124        O  0.66866402  0.60693144  0.94662036    -0.56600
O125        O  0.73174627  0.63713545  0.98863195    -0.55400
C126        C  0.70035520  0.70932024  0.96955195     0.78300
O127        O  0.75238814  0.67274840  0.96163416    -0.57800
O128        O  0.68986853  0.64804102  0.92564135    -0.56300
O129        O  0.69249709  0.65277838  0.01719102    -0.56200
O130        O  0.67634648  0.68397127  0.96640521    -0.55400
O131        O  0.01464788  0.30257114  0.11931132    -0.56600
C132        C  0.01959187  0.29233185  0.03689804     0.76000
O133        O  0.06532131  0.38286751  0.07172150    -0.57800
C134        C  0.03403154  0.32276853  0.13383100     0.76000
C135        C  0.09886802  0.32757016  0.08078549     0.78400
Cd136      Cd  0.04529053  0.32956320  0.08065374     1.37500
O137        O  0.00710847  0.28261670  0.05803934    -0.56600
O138        O  0.07351796  0.30562654  0.08779058    -0.55400
C139        C  0.04009423  0.38063955  0.07216791     0.78300
O140        O  0.09988637  0.35107729  0.07388670    -0.57800
O141        O  0.04189946  0.31913104  0.03609075    -0.56300
O142        O  0.05692493  0.34484035  0.12364037    -0.56200
O143        O  0.01699852  0.35460728  0.07572752    -0.55400
O144        O  0.34104236  0.29584058  0.11826114    -0.56600
C145        C  0.31052685  0.27432281  0.03733367     0.76000
O146        O  0.29460056  0.33581652  0.07235639    -0.57800
C147        C  0.31842888  0.28732763  0.13225887     0.76000
C148        C  0.37503407  0.36667267  0.08263909     0.78400
Cd149      Cd  0.31972111  0.30874317  0.08213681     1.37500
O150        O  0.30424859  0.26193570  0.05856684    -0.56600
O151        O  0.37452681  0.34324253  0.07647044    -0.55400
C152        C  0.26848309  0.31413995  0.07815121     0.78300
O153        O  0.35015290  0.36329666  0.08884601    -0.57800
O154        O  0.32354857  0.30252470  0.03703608    -0.56300
O155        O  0.29641895  0.28710183  0.12270387    -0.56200
O156        O  0.26620129  0.29028354  0.08554863    -0.55400
O157        O  0.61805702  0.92124305  0.11769053    -0.56600
C158        C  0.64362441  0.91579058  0.03743892     0.76000
O159        O  0.58066023  0.83600608  0.09583548    -0.57800
C160        C  0.62940314  0.90911411  0.12979277     0.76000
C161        C  0.55129166  0.89149729  0.07621902     0.78400
Cd162      Cd  0.60425479  0.88829431  0.08032118     1.37500
O163        O  0.65462964  0.92090631  0.05922612    -0.56600
O164        O  0.57758310  0.91483239  0.07598268    -0.55400
C165        C  0.58794723  0.82682921  0.07701098     0.78300
O166        O  0.54932537  0.86664211  0.07830630    -0.57800
O167        O  0.61523644  0.90029355  0.03594781    -0.56300
O168        O  0.63148975  0.88933944  0.11838642    -0.56200
O169        O  0.60145983  0.84550906  0.05960605    -0.55400
O170        O  0.62441251  0.58998151  0.12065876    -0.56600
C171        C  0.64755678  0.62267793  0.04090533     0.76000
O172        O  0.55639273  0.57687925  0.08904243    -0.57800
C173        C  0.63864974  0.61431531  0.13273650     0.76000
C174        C  0.59636511  0.65617150  0.08269828     0.78400
Cd175      Cd  0.61133493  0.61111339  0.08512580     1.37500
O176        O  0.65947980  0.63462568  0.06163466    -0.56600
O177        O  0.60494836  0.64852189  0.06376528    -0.55400
C178        C  0.55611612  0.55327907  0.08423022     0.78300
O179        O  0.59382711  0.64249975  0.10280818    -0.57800
O180        O  0.61942833  0.60390140  0.04097792    -0.56300
O181        O  0.64303045  0.63752939  0.12176341    -0.56200
O182        O  0.58126285  0.55637971  0.07975692    -0.55400
O183        O  0.65024704  0.91884171  0.99333640    -0.56600
C184        C  0.67331462  0.94943820  0.92318876     0.76000
O185        O  0.75202889  0.97319654  0.96342791    -0.57800
C186        C  0.66227602  0.92559767  0.01468134     0.76000
C187        C  0.70094955  0.88685869  0.96540911     0.78400
Cd188      Cd  0.69700655  0.93956354  0.96870590     1.37500
O189        O  0.66837377  0.95611712  0.94450211    -0.56600
O190        O  0.67669479  0.88566627  0.96108796    -0.55400
C191        C  0.75400259  0.99641022  0.97219884     0.78300
O192        O  0.72364127  0.91240486  0.97084980    -0.57800
O193        O  0.68845136  0.93726832  0.92263377    -0.56300
O194        O  0.69075428  0.93978743  0.01519343    -0.56200
O195        O  0.72972126  0.99353932  0.97956151    -0.55400
O196        O  0.98038048  0.26593186  0.94600348    -0.56600
C197        C  0.01016262  0.27347653  0.01436685     0.76000
O198        O  0.96401156  0.18123092  0.96494998    -0.57800
C199        C  0.98472058  0.25906514  0.92453898     0.76000
C200        C  0.04841390  0.23114679  0.96878001     0.78400
Cd201      Cd  0.99621537  0.23645553  0.97002885     1.37500
O202        O  0.02353861  0.28390714  0.99377944    -0.56600
O203        O  0.04791434  0.25174515  0.95718776    -0.55400
C204        C  0.94020964  0.17856716  0.97337047     0.78300
O205        O  0.02485933  0.21280597  0.98085103    -0.57800
O206        O  0.98948560  0.24593600  0.01462442    -0.56300
O207        O  0.99556122  0.24273396  0.92379502    -0.56200
O208        O  0.94225608  0.20242254  0.98049937    -0.55400
O209        O  0.97946511  0.29588770  0.82001964    -0.56600
C210        C  0.97551568  0.26785570  0.90185889     0.76000
O211        O  0.92229025  0.30397960  0.86482700    -0.57800
C212        C  0.96119412  0.27385716  0.80649386     0.76000
C213        C  0.88847248  0.22254603  0.86512198     0.78400
Cd214      Cd  0.94696035  0.27601628  0.85887925     1.37500
O215        O  0.97942270  0.26105852  0.88016380    -0.56600
O216        O  0.91252673  0.22279230  0.86734004    -0.55400
C217        C  0.94607157  0.32996310  0.86481192     0.78300
O218        O  0.89116128  0.24735053  0.86023249    -0.57800
O219        O  0.96143933  0.28106001  0.90324811    -0.56300
O220        O  0.93804646  0.25300754  0.81732481    -0.56200
O221        O  0.97073341  0.33138340  0.86197573    -0.55400
O222        O  0.66892797  0.95166318  0.87873683    -0.56600
C223        C  0.65273030  0.96609903  0.80487957     0.76000
O224        O  0.62070621  0.00292322  0.86055034    -0.57800
C225        C  0.66341445  0.95716990  0.90037926     0.76000
C226        C  0.70391779  0.04071869  0.86145085     0.78400
Cd227      Cd  0.65151513  0.98151152  0.85677528     1.37500
O228        O  0.63362360  0.94617794  0.81963991    -0.56600
O229        O  0.70485192  0.01730715  0.86218444    -0.55400
C230        C  0.59571445  0.97832758  0.86310966     0.78300
O231        O  0.67829214  0.03716372  0.85846535    -0.57800
O232        O  0.67094627  0.99144946  0.81432049    -0.56300
O233        O  0.65018058  0.97122855  0.90154668    -0.56200
O234        O  0.59613436  0.95454866  0.86283310    -0.55400
O235        O  0.96580361  0.59857094  0.55705570    -0.56600
C236        C  0.93897974  0.55584391  0.63121632     0.76000
O237        O  0.87497436  0.52564595  0.56982559    -0.51800
C238        C  0.95786359  0.58811889  0.53515879     0.76000
C239        C  0.93214607  0.49659890  0.57048338     0.78400
Cd240      Cd  0.92951522  0.54906100  0.57774127     1.37500
O241        O  0.96058609  0.57344011  0.61680271    -0.56600
O242        O  0.95574473  0.52214294  0.57447019    -0.55400
C243        C  0.87548213  0.54941893  0.57457533     0.78300
O244        O  0.90756993  0.49552001  0.56876638    -0.57800
O245        O  0.91459314  0.53645108  0.62084540    -0.56300
O246        O  0.93961087  0.56007327  0.53334726    -0.56200
O247        O  0.90060764  0.57236500  0.58057058    -0.55400
O248        O  0.67680442  0.58426071  0.62379438    -0.56600
C249        C  0.66585941  0.60190513  0.53749818     0.76000
O250        O  0.67705324  0.53638101  0.57740528    -0.57800
C251        C  0.65615459  0.58647592  0.63336606     0.76000
C252        C  0.59759879  0.51031649  0.58025532     0.78400
Cd253      Cd  0.65433646  0.56659105  0.58244187     1.37500
O254        O  0.66860096  0.61359920  0.55872661    -0.56600
O255        O  0.59899486  0.53495306  0.57828397    -0.55400
C256        C  0.70383661  0.55858141  0.57994708     0.78300
O257        O  0.62220679  0.51180054  0.58318065    -0.57800
O258        O  0.65614511  0.57426609  0.53723445    -0.56300
O259        O  0.63460038  0.58095090  0.61911289    -0.56200
O260        O  0.70743099  0.58395964  0.58373919    -0.55400
O261        O  0.30831502  0.92066637  0.44368190    -0.56600
C262        C  0.31180586  0.94913624  0.51497709     0.76000
O263        O  0.25620882  0.96763088  0.47124356    -0.57800
C264        C  0.30516069  0.92917525  0.42251511     0.76000
C265        C  0.22230495  0.88318461  0.46838262     0.78400
Cd266      Cd  0.28063613  0.93863137  0.46772458     1.37500
O267        O  0.32550546  0.95658180  0.49428178    -0.56600
O268        O  0.24547984  0.88476602  0.47701171    -0.55400
C269        C  0.27946597  0.99274838  0.46570836     0.78300
O270        O  0.22593341  0.90713313  0.45954498    -0.57800
O271        O  0.28340490  0.93568727  0.51408366    -0.56300
O272        O  0.29201634  0.94337443  0.42214742    -0.56200
O273        O  0.30305262  0.99286085  0.46074606    -0.55400
O274        O  0.95831802  0.59567923  0.49135657    -0.56600
C275        C  0.99022567  0.61915286  0.42227976     0.76000
O276        O  0.95188054  0.66750943  0.47483967    -0.57800
C277        C  0.96743773  0.60717137  0.51269926     0.76000
C278        C  0.03696423  0.70012075  0.46872613     0.78400
Cd279      Cd  0.98031061  0.64282292  0.46760753     1.37500
O280        O  0.99774633  0.61499543  0.44352030    -0.56600
O281        O  0.03387169  0.67670665  0.47826909    -0.55400
C282        C  0.92719327  0.64622786  0.46614751     0.78300
O283        O  0.01375537  0.69742337  0.45897354    -0.57800
O284        O  0.97700732  0.63327995  0.42178642    -0.56300
O285        O  0.98357038  0.63555225  0.51357274    -0.56200
O286        O  0.92708327  0.62366702  0.45805192    -0.55400
O287        O  0.29765004  0.89611879  0.31621526    -0.56600
C288        C  0.31415781  0.92080875  0.39951032     0.76000
O289        O  0.29207805  0.83843578  0.34804233    -0.57800
C290        C  0.32165865  0.91544699  0.30523773     0.76000
C291        C  0.37558887  0.89323047  0.35936420     0.78400
Cd292      Cd  0.32150440  0.89386397  0.35533885     1.37500
O293        O  0.30911017  0.92718822  0.37805153    -0.56600
O294        O  0.37647425  0.91765243  0.36064073    -0.55400
C295        C  0.26927028  0.83365829  0.36022585     0.78300
O296        O  0.34989158  0.86942038  0.35677511    -0.57800
O297        O  0.32543383  0.90488453  0.40025052    -0.56300
O298        O  0.34556613  0.92671594  0.31789627    -0.56200
O299        O  0.27074617  0.85633800  0.36964227    -0.55400
O300        O  0.99043103  0.61293211  0.37793226    -0.56600
C301        C  0.00448099  0.60345604  0.30510378     0.76000
O302        O  0.07924711  0.62742735  0.34835421    -0.57800
C303        C  0.99840264  0.60981482  0.39941079     0.76000
C304        C  0.02142221  0.54477185  0.36050378     0.78400
Cd305      Cd  0.02370638  0.60029030  0.35522537     1.37500
O306        O  0.02566123  0.62590697  0.31632468    -0.56600
O307        O  0.99733857  0.54477039  0.36105569    -0.55400
C308        C  0.08479379  0.65135912  0.35889541     0.78300
O309        O  0.04573199  0.56987964  0.35737447    -0.57800
O310        O  0.99024515  0.57932195  0.31749283    -0.56300
O311        O  0.01545638  0.59981685  0.40027168    -0.56200
O312        O  0.06247781  0.65144852  0.36749748    -0.55400
O313        O  0.67009692  0.60649031  0.49328886    -0.56600
C314        C  0.66464836  0.62918759  0.42164566     0.76000
O315        O  0.72193147  0.70797049  0.46608650    -0.57800
C316        C  0.67491333  0.61931553  0.51420045     0.76000
C317        C  0.75413092  0.65472931  0.46499092     0.78400
Cd318      Cd  0.69789422  0.65242011  0.46778926     1.37500
O319        O  0.65186494  0.62096038  0.44270675    -0.56600
O320        O  0.72944028  0.63221940  0.45763492    -0.55400
C321        C  0.69756165  0.70704863  0.46914734     0.78300
O322        O  0.75330752  0.67683978  0.47302647    -0.57800
O323        O  0.69301063  0.64685777  0.42174634    -0.56300
O324        O  0.68923315  0.64768363  0.51391118    -0.56200
O325        O  0.67392516  0.68131592  0.47192195    -0.55400
O326        O  0.97548971  0.25934019  0.49378034    -0.56600
C327        C  0.00714468  0.26865306  0.42600179     0.76000
O328        O  0.02054697  0.20557523  0.46194912    -0.57800
C329        C  0.98303217  0.25576742  0.51520520     0.76000
C330        C  0.93615869  0.17458141  0.46923556     0.78400
Cd331      Cd  0.99343852  0.23172838  0.47026789     1.37500
O332        O  0.01759963  0.27952501  0.44727908    -0.56600
O333        O  0.93969011  0.19766648  0.45863065    -0.55400
C334        C  0.04560406  0.22614872  0.47071443     0.78300
O335        O  0.95910041  0.17758880  0.47984429    -0.57800
O336        O  0.98940803  0.24042628  0.42486835    -0.56300
O337        O  0.99697003  0.24235357  0.51613859    -0.56200
O338        O  0.04653816  0.24893954  0.47931482    -0.55400
O339        O  0.98061733  0.26132263  0.55953015    -0.56600
C340        C  0.96082491  0.27332027  0.63291225     0.76000
O341        O  0.91958269  0.30017077  0.57559036    -0.57800
C342        C  0.97377458  0.26473768  0.53770520     0.76000
C343        C  0.88744521  0.21925863  0.57583430     0.78400
Cd344      Cd  0.94542952  0.27310389  0.58069001     1.37500
O345        O  0.97896808  0.29443387  0.61851127    -0.56600
O346        O  0.91121803  0.21898160  0.57811047    -0.55400
C347        C  0.94327205  0.32616192  0.57538145     0.78300
O348        O  0.89025556  0.24464010  0.57598673    -0.57800
O349        O  0.93701662  0.25225222  0.62306147    -0.56300
O350        O  0.95663236  0.27455079  0.53607796    -0.56200
O351        O  0.96810314  0.32777196  0.57746694    -0.55400
O352        O  0.62806469  0.94373411  0.61719917    -0.56600
C353        C  0.65625711  0.95383497  0.53583628     0.76000
O354        O  0.62050234  0.00595213  0.57988364    -0.57800
C355        C  0.64826501  0.96269149  0.63182605     0.76000
C356        C  0.70392088  0.03642566  0.57573319     0.78400
Cd357      Cd  0.64801174  0.97989221  0.58033944     1.37500
O358        O  0.65728678  0.94425164  0.55723944    -0.56600
O359        O  0.70274961  0.01191421  0.57747643    -0.55400
C360        C  0.59463681  0.98234626  0.57751411     0.78300
O361        O  0.67912342  0.03503194  0.57645220    -0.57800
O362        O  0.64861341  0.97277152  0.53510038    -0.56300
O363        O  0.66779491  0.98760191  0.62238759    -0.56200
O364        O  0.59346443  0.95778512  0.57607060    -0.55400
O365        O  0.64550631  0.91912672  0.44215097    -0.56600
C366        C  0.66558955  0.94545582  0.51299860     0.76000
O367        O  0.71638360  0.90766282  0.46828275    -0.57800
C368        C  0.65859033  0.92448427  0.42123924     0.76000
C369        C  0.74903406  0.99235686  0.46691798     0.78400
Cd370      Cd  0.69075703  0.93570898  0.46821068     1.37500
O371        O  0.66600954  0.95679902  0.49214355    -0.56600
O372        O  0.72610242  0.98911173  0.45611973    -0.55400
C373        C  0.69285747  0.88179282  0.47102723     0.78300
O374        O  0.74545869  0.96941352  0.47783593    -0.57800
O375        O  0.67541271  0.92824342  0.51326294    -0.56300
O376        O  0.68674334  0.93579698  0.42176915    -0.56200
O377        O  0.66825114  0.88059760  0.47282701    -0.55400
O378        O  0.65419091  0.92233139  0.37650912    -0.56600
C379        C  0.62873952  0.91055021  0.30201399     0.76000
O380        O  0.57791434  0.83531672  0.34574729    -0.57800
C381        C  0.64150707  0.91617090  0.39769680     0.76000
C382        C  0.55165320  0.89071452  0.35620181     0.78400
Cd383      Cd  0.60625165  0.89053602  0.35253414     1.37500
O384        O  0.62298975  0.92610588  0.31607451    -0.56600
O385        O  0.57746499  0.91470828  0.35528378    -0.55400
C386        C  0.59795672  0.83250050  0.35601576     0.78300
O387        O  0.55081438  0.86628155  0.35585287    -0.57800
O388        O  0.62623255  0.88756021  0.31172257    -0.56300
O389        O  0.61302702  0.90091919  0.39772929    -0.56200
O390        O  0.62076127  0.85602528  0.36461858    -0.55400
O391        O  0.62519622  0.59106161  0.31677311    -0.56600
C392        C  0.64714399  0.62033425  0.39838994     0.76000
O393        O  0.58217225  0.63367428  0.34482945    -0.57800
C394        C  0.63649385  0.61503372  0.30427471     0.76000
C395        C  0.55715821  0.55189865  0.35606659     0.78400
Cd396      Cd  0.61177860  0.61032514  0.35383596     1.37500
O397        O  0.65958296  0.62853285  0.37717474    -0.56600
O398        O  0.58271963  0.55493119  0.35675995    -0.55400
C399        C  0.59922604  0.65713021  0.35742697     0.78300
O400        O  0.55692185  0.57571067  0.35494370    -0.57800
O401        O  0.61867026  0.60559697  0.39873602    -0.56300
O402        O  0.63854719  0.63722168  0.31525024    -0.56200
O403        O  0.62114316  0.65845275  0.36837789    -0.55400
O404        O  0.33983079  0.23755715  0.62199483    -0.56600
C405        C  0.32825572  0.25603062  0.53842628     0.76000
O406        O  0.41772736  0.29848316  0.58010982    -0.57800
C407        C  0.33833196  0.25802956  0.63264923     0.76000
C408        C  0.37257844  0.21665030  0.57764367     0.78400
Cd409      Cd  0.36285611  0.26482542  0.58282086     1.37500
O410        O  0.31577285  0.24922708  0.55967899    -0.56600
O411        O  0.35013103  0.21579606  0.56818032    -0.55400
C412        C  0.41805230  0.32261975  0.58053298     0.78300
O413        O  0.39115117  0.24012649  0.58961417    -0.57800
O414        O  0.35661818  0.26918841  0.53800267    -0.56300
O415        O  0.34634056  0.28126694  0.61983729    -0.56200
O416        O  0.39280886  0.32018867  0.58178496    -0.55400
O417        O  0.34746734  0.94684047  0.61967690    -0.56600
C418        C  0.32845188  0.95754634  0.53869122     0.76000
O419        O  0.39310512  0.03803857  0.59064045    -0.57800
C420        C  0.34014276  0.96106951  0.63383834     0.76000
C421        C  0.41910290  0.98577022  0.58025627     0.78400
Cd422      Cd  0.36314703  0.98301736  0.58402348     1.37500
O423        O  0.31544725  0.95070031  0.55974914    -0.56600
O424        O  0.39388866  0.96122165  0.57824678    -0.55400
C425        C  0.37358188  0.04184691  0.58069842     0.78300
O426        O  0.41858041  0.00919480  0.58370550    -0.57800
O427        O  0.35689511  0.97362381  0.53891127    -0.56300
O428        O  0.34111397  0.98346075  0.62441007    -0.56200
O429        O  0.34979375  0.01875798  0.57277088    -0.55400
O430        O  0.30814824  0.26979060  0.44401407    -0.56600
C431        C  0.31080421  0.24712111  0.51523992     0.76000
O432        O  0.22160847  0.19870469  0.46617536    -0.57800
C433        C  0.30126344  0.25695654  0.42301017     0.76000
C434        C  0.27651880  0.16825821  0.46720528     0.78400
Cd435      Cd  0.27760469  0.22371496  0.46926064     1.37500
O436        O  0.32360491  0.25523081  0.49419836    -0.56600
O437        O  0.30070009  0.19358656  0.46455688    -0.55400
C438        C  0.22120500  0.22152792  0.47267992     0.78300
O439        O  0.25274247  0.16835446  0.47049907    -0.57800
O440        O  0.28247361  0.22935161  0.51518540    -0.56300
O441        O  0.28455306  0.22861343  0.42319909    -0.56200
O442        O  0.24640866  0.24478829  0.47805391    -0.55400
O443        O  0.01135173  0.30038207  0.32299515    -0.56600
C444        C  0.01674285  0.28805341  0.40381456     0.76000
O445        O  0.09817362  0.35144843  0.36777614    -0.57800
C446        C  0.03169726  0.31907024  0.30815446     0.76000
C447        C  0.03654697  0.37702642  0.36862215     0.78400
Cd448      Cd  0.04302919  0.32691159  0.36108109     1.37500
O449        O  0.00638379  0.27823909  0.38216793    -0.56600
O450        O  0.01379596  0.35086207  0.36494622    -0.55400
C451        C  0.09823627  0.32827122  0.36166510     0.78300
O452        O  0.06195055  0.37973337  0.36985048    -0.57800
O453        O  0.03712057  0.31559565  0.40552007    -0.56300
O454        O  0.05575485  0.33996864  0.31789022    -0.56200
O455        O  0.07325714  0.30528219  0.35547762    -0.55400
O456        O  0.34075541  0.29730235  0.31755672    -0.56600
C457        C  0.31028059  0.27431308  0.39969306     0.76000
O458        O  0.34938558  0.36390652  0.35443490    -0.57800
C459        C  0.31768025  0.28807507  0.30408037     0.76000
C460        C  0.26731399  0.31390201  0.35698967     0.78400
Cd461      Cd  0.31896004  0.30865602  0.35466462     1.37500
O462        O  0.30439820  0.26196233  0.37848428    -0.56600
O463        O  0.26481082  0.28881505  0.35469974    -0.55400
C464        C  0.37464041  0.36630516  0.35561352     0.78300
O465        O  0.29379937  0.33687210  0.35842677    -0.57800
O466        O  0.32259478  0.30244250  0.39989164    -0.56300
O467        O  0.29553259  0.28705010  0.31428304    -0.56200
O468        O  0.37424091  0.34211146  0.35640414    -0.55400
C469        C  0.15274692  0.30993407  0.35771566     0.31000
C470        C  0.16328061  0.29088932  0.35373815    -0.35400
C471        C  0.19442895  0.30412489  0.35600176     0.16900
C472        C  0.21397582  0.33410920  0.36164152     0.22800
C473        C  0.20338978  0.35319641  0.36569517    -0.33500
C474        C  0.17211494  0.33988758  0.36356620     0.16800
O475        O  0.12448089  0.30216256  0.35640641    -0.25500
C476        C  0.12559454  0.32736284  0.36154939     0.06600
C477        C  0.15463750  0.35165318  0.36623152    -0.30400
O478        O  0.24228737  0.34167534  0.36269982    -0.22200
C479        C  0.24071200  0.31614801  0.35780548    -0.02200
C480        C  0.21151990  0.29205755  0.35350016    -0.16700
H481        H  0.14821719  0.26737525  0.34921227     0.21300
H482        H  0.21844996  0.37671196  0.37019971     0.19700
H483        H  0.16177851  0.37454163  0.37071329     0.19600
H484        H  0.20404481  0.26905753  0.34909176     0.15500
C485        C  0.36837247  0.10339754  0.56756027     0.31000
C486        C  0.35471435  0.11769366  0.55765957    -0.35400
C487        C  0.36678327  0.14728564  0.56534386     0.16900
C488        C  0.39085876  0.16205035  0.58152507     0.22800
C489        C  0.40498389  0.14786151  0.59109524    -0.33500
C490        C  0.39271794  0.11802299  0.58350642     0.16800
O491        O  0.35903138  0.07504624  0.56431546    -0.25500
C492        C  0.37766633  0.07134201  0.57816777     0.06600
C493        C  0.39930814  0.09731156  0.59047220    -0.30400
O494        O  0.39685523  0.18896303  0.58757987    -0.22200
C495        C  0.37629807  0.19121375  0.57508687    -0.02200
C496        C  0.35714892  0.16605334  0.56086697    -0.16700
H497        H  0.33523375  0.10612688  0.54558791     0.21300
H498        H  0.42341798  0.15888254  0.60423138     0.19700
H499        H  0.41641560  0.10011048  0.60340219     0.19600
H500        H  0.33808967  0.16174650  0.54969969     0.15500
C501        C  0.48284130  0.48999818  0.35599771     0.31000
C502        C  0.45133776  0.47524805  0.35565703    -0.35400
C503        C  0.43529237  0.44379583  0.35593005     0.16900
C504        C  0.44927476  0.42792112  0.35649268     0.22800
C505        C  0.48081715  0.44268973  0.35682473    -0.33500
C506        C  0.49688256  0.47417820  0.35656527     0.16800
O507        O  0.50215970  0.51928350  0.35581421    -0.25500
C508        C  0.52893547  0.52231729  0.35633573     0.06600
C509        C  0.52710193  0.49502301  0.35676958    -0.30400
O510        O  0.42985220  0.39861386  0.35654199    -0.22200
C511        C  0.40311672  0.39571004  0.35598544    -0.02200
C512        C  0.40509743  0.42306236  0.35560011    -0.16700
H513        H  0.44012647  0.48745605  0.35518467     0.21300
H514        H  0.49203141  0.43048483  0.35723426     0.19700
H515        H  0.54533729  0.49116104  0.35712072     0.19600
H516        H  0.38694073  0.42703694  0.35506972     0.15500
C517        C  0.58226743  0.75919054  0.35159327     0.31000
C518        C  0.56841677  0.72961129  0.34265769    -0.35400
C519        C  0.58045226  0.71308701  0.35143545     0.16900
C520        C  0.60435462  0.72494222  0.36787439     0.22800
C521        C  0.61801807  0.75429585  0.37685361    -0.33500
C522        C  0.60615846  0.77074781  0.36801248     0.16800
O523        O  0.57556376  0.77914635  0.34532539    -0.25500
C524        C  0.59554434  0.80362226  0.35791106     0.06600
C525        C  0.61510321  0.79967921  0.37225128    -0.30400
O526        O  0.61323641  0.70643698  0.37259099    -0.22200
C527        C  0.59486142  0.68228358  0.35908154    -0.02200
C528        C  0.57380364  0.68496787  0.34559752    -0.16700
H529        H  0.55006506  0.72038926  0.32941074     0.21300
H530        H  0.63710237  0.76390087  0.38938457     0.19700
H531        H  0.63355603  0.81596977  0.38382944     0.19600
H532        H  0.55703442  0.66911269  0.33262870     0.15500
C533        C  0.53865862  0.99940946  0.57840014     0.31000
C534        C  0.52655235  0.01745955  0.58062618    -0.35400
C535        C  0.49496590  0.00231329  0.57938318     0.16900
C536        C  0.47669735  0.97160784  0.57616623     0.22800
C537        C  0.48877056  0.95367832  0.57394811    -0.33500
C538        C  0.52019330  0.96873546  0.57519342     0.16800
O539        O  0.56746001  0.00853253  0.57939215    -0.25500
C540        C  0.56723861  0.98330052  0.57677391     0.06600
C541        C  0.53847928  0.95792013  0.57408598    -0.30400
O542        O  0.44783915  0.96193649  0.57584106    -0.22200
C543        C  0.44744894  0.98669312  0.57887675    -0.02200
C544        C  0.47610743  0.01256975  0.58118290    -0.16700
H545        H  0.54070010  0.04150756  0.58330256     0.21300
H546        H  0.47459733  0.92957959  0.57158183     0.19700
H547        H  0.53199518  0.93480166  0.57192457     0.19600
H548        H  0.48208111  0.03543786  0.58401506     0.15500
C549        C  0.76425243  0.11108900  0.57067501     0.31000
C550        C  0.77857250  0.14245653  0.57038624    -0.35400
C551        C  0.81017005  0.15887191  0.57072492     0.16900
C552        C  0.82646268  0.14529758  0.57110391     0.22800
C553        C  0.81219330  0.11402080  0.57095941    -0.33500
C554        C  0.78067885  0.09765664  0.57085070     0.16800
O555        O  0.73497057  0.09136234  0.57202576    -0.25500
C556        C  0.73275981  0.06507108  0.57309490     0.06600
C557        C  0.76043020  0.06759392  0.57229620    -0.30400
O558        O  0.85566953  0.16478635  0.57267922    -0.22200
C559        C  0.85818059  0.19119129  0.57327073    -0.02200
C560        C  0.83066548  0.18900849  0.57201156    -0.16700
H561        H  0.76597723  0.15327597  0.57066366     0.21300
H562        H  0.82478447  0.10320680  0.57167271     0.19700
H563        H  0.76495313  0.04988649  0.57334676     0.19600
H564        H  0.82640924  0.20691526  0.57261496     0.15500
C565        C  0.14805274  0.20806352  0.46860766     0.31000
C566        C  0.11714959  0.19229100  0.46264992    -0.35400
C567        C  0.10240044  0.20763416  0.46686468     0.16900
C568        C  0.11707942  0.23643591  0.47632926     0.22800
C569        C  0.14786704  0.25215954  0.48218199    -0.33500
C570        C  0.16255641  0.23689880  0.47795970     0.16800
O571        O  0.16648417  0.19839949  0.46585652    -0.25500
C572        C  0.19309022  0.22142647  0.47353908     0.06600
C573        C  0.19189760  0.24590690  0.48128153    -0.30400
O574        O  0.09912546  0.24657384  0.47890817    -0.22200
C575        C  0.07248360  0.22406932  0.47096461    -0.02200
C576        C  0.07314426  0.19922255  0.46317816    -0.16700
H577        H  0.10547229  0.16973386  0.45517421     0.21300
H578        H  0.15959946  0.27480667  0.48947325     0.19700
H579        H  0.21015375  0.26741637  0.48802412     0.19600
H580        H  0.05476560  0.17809477  0.45595211     0.15500
C581        C  0.86133642  0.11384863  0.46245301     0.31000
C582        C  0.83135990  0.09871371  0.45407078    -0.35400
C583        C  0.81297843  0.06830376  0.46081778     0.16900
C584        C  0.82331663  0.05381625  0.47497440     0.22800
C585        C  0.85322866  0.06900312  0.48348616    -0.33500
C586        C  0.87165319  0.09933742  0.47660233     0.16800
O587        O  0.88255068  0.14216814  0.45796375    -0.25500
C588        C  0.90679984  0.14582082  0.46933181     0.06600
C589        C  0.90132379  0.11993503  0.48127013    -0.30400
O590        O  0.80236691  0.02527015  0.47890488    -0.22200
C591        C  0.77825877  0.02134944  0.46708074    -0.02200
C592        C  0.78354379  0.04738831  0.45552091    -0.16700
H593        H  0.82302484  0.10979948  0.44287342     0.21300
H594        H  0.86163341  0.05785918  0.49451690     0.19700
H595        H  0.91696945  0.11677047  0.49177920     0.19600
H596        H  0.76795454  0.05041915  0.44478476     0.15500
C597        C  0.71040986  0.77960504  0.46911630     0.31000
C598        C  0.72743773  0.81113042  0.46835129    -0.35400
C599        C  0.71110719  0.82510689  0.47015646     0.16900
C600        C  0.68012940  0.80922061  0.47253006     0.22800
C601        C  0.66308431  0.77767625  0.47329302    -0.33500
C602        C  0.67942898  0.76370611  0.47150242     0.16800
O603        O  0.72103949  0.76194684  0.46783471    -0.25500
C604        C  0.69652869  0.73437245  0.46949074     0.06600
C605        C  0.67002276  0.73411591  0.47172870    -0.30400
O606        O  0.66951591  0.82691552  0.47350700    -0.22200
C607        C  0.69404306  0.85450726  0.47172427    -0.02200
C608        C  0.72052723  0.85470881  0.46965318    -0.16700
H609        H  0.75172125  0.82388023  0.46642946     0.21300
H610        H  0.63878358  0.76491506  0.47508014     0.19700
H611        H  0.64716786  0.71488964  0.47337799     0.19600
H612        H  0.74335500  0.87389190  0.46768824     0.15500
C613        C  0.01499710  0.42940311  0.36977941     0.31000
C614        C  0.99522676  0.43961502  0.36831704    -0.35400
C615        C  0.00886368  0.47092673  0.36701625     0.16900
C616        C  0.03976121  0.49061666  0.36709985     0.22800
C617        C  0.05940297  0.48046419  0.36883994    -0.33500
C618        C  0.04583872  0.44933750  0.37021677     0.16800
O619        O  0.00742300  0.40115018  0.36983419    -0.25500
C620        C  0.03379204  0.40320003  0.37051026     0.06600
C621        C  0.05841211  0.43261816  0.37088973    -0.30400
O622        O  0.04787478  0.51880266  0.36488105    -0.22200
C623        C  0.02195105  0.51741513  0.36346299    -0.02200
C624        C  0.99678746  0.48818756  0.36476311    -0.16700
H625        H  0.97101169  0.42425214  0.36774022     0.21300
H626        H  0.08363748  0.49579115  0.36867711     0.19700
H627        H  0.08213126  0.44049987  0.37063717     0.19600
H628        H  0.97322363  0.48079290  0.36379474     0.15500
C629        C  0.44849205  0.90676245  0.36058286     0.31000
C630        C  0.48010675  0.92403357  0.36048354    -0.35400
C631        C  0.49431696  0.90793358  0.35923003     0.16900
C632        C  0.47857716  0.87696671  0.35817179     0.22800
C633        C  0.44695157  0.85969091  0.35823705    -0.33500
C634        C  0.43274380  0.87579464  0.35949410     0.16800
O635        O  0.43058309  0.91713235  0.36113455    -0.25500
C636        C  0.40303599  0.89245055  0.36038288     0.06600
C637        C  0.40300513  0.86611238  0.35939771    -0.30400
O638        O  0.49651252  0.86663815  0.35705961    -0.22200
C639        C  0.52407835  0.89134716  0.35742012    -0.02200
C640        C  0.52406584  0.91765398  0.35869903    -0.16700
H641        H  0.49274328  0.94832218  0.36118624     0.21300
H642        H  0.43431077  0.83541873  0.35726181     0.19700
H643        H  0.38384166  0.84321278  0.35830142     0.19600
H644        H  0.54322995  0.94059768  0.35914896     0.15500
C645        C  0.20980611  0.75805925  0.35738751     0.31000
C646        C  0.19355116  0.72839656  0.34840509    -0.35400
C647        C  0.16315353  0.71070153  0.35571805     0.16900
C648        C  0.14981929  0.72149964  0.37088133     0.22800
C649        C  0.16613852  0.75086082  0.38018572    -0.33500
C650        C  0.19635372  0.76850411  0.37280298     0.16800
O651        O  0.23773303  0.77929902  0.35138153    -0.25500
C652        C  0.24201918  0.80352867  0.36312487     0.06600
C653        C  0.21714260  0.79802396  0.37687992    -0.30400
O654        O  0.12081606  0.70192250  0.37418920    -0.22200
C655        C  0.11537243  0.67811389  0.36112942    -0.02200
C656        C  0.14088390  0.68216167  0.34929757    -0.16700
H657        H  0.20358482  0.72004214  0.33591078     0.21300
H658        H  0.15569973  0.75967752  0.39168378     0.19700
H659        H  0.21434022  0.81385985  0.38741969     0.19600
H660        H  0.14251413  0.66675354  0.33710659     0.15500
C661        C  0.87146807  0.66353529  0.46963050     0.31000
C662        C  0.85940937  0.68116561  0.47467295    -0.35400
C663        C  0.82857029  0.66777523  0.46961953     0.16900
C664        C  0.81083017  0.63900596  0.46030205     0.22800
C665        C  0.82285903  0.62138350  0.45530654    -0.33500
C666        C  0.85366435  0.63478778  0.46028735     0.16800
O667        O  0.89971006  0.67149793  0.47294629    -0.25500
C668        C  0.89995407  0.64754003  0.46556737     0.06600
C669        C  0.87194054  0.62404391  0.45751581    -0.30400
O670        O  0.78253684  0.63082545  0.45717095    -0.22200
C671        C  0.78207597  0.65465088  0.46454365    -0.02200
C672        C  0.81008250  0.67833499  0.47249658    -0.16700
H673        H  0.87309166  0.70371016  0.48203634     0.21300
H674        H  0.80914339  0.59878100  0.44806048     0.19700
H675        H  0.86593947  0.60220805  0.45069245     0.19600
H676        H  0.81585265  0.69998552  0.47960380     0.15500
C677        C  0.15981344  0.80957879  0.47400088     0.31000
C678        C  0.14435095  0.77904239  0.48031895    -0.35400
C679        C  0.11355231  0.76210229  0.47457697     0.16900
C680        C  0.09888905  0.77427273  0.46331453     0.22800
C681        C  0.11437752  0.80486209  0.45697414    -0.33500
C682        C  0.14521392  0.82185163  0.46279126     0.16800
O683        O  0.18873195  0.82947879  0.47757974    -0.25500
C684        C  0.19273970  0.85485139  0.46855538     0.06600
C685        C  0.16645581  0.85149492  0.45914322    -0.30400
O686        O  0.06996778  0.75419279  0.45970028    -0.22200
C687        C  0.06613681  0.72891421  0.46886063    -0.02200
C688        C  0.09247390  0.73250505  0.47831160    -0.16700
H689        H  0.15555811  0.76917400  0.48911009     0.21300
H690        H  0.10318379  0.81471983  0.44814269     0.19700
H691        H  0.16352656  0.86839040  0.45070242     0.19600
H692        H  0.09559334  0.71570544  0.48669589     0.15500
C693        C  0.26365793  0.04941182  0.46783764     0.31000
C694        C  0.24584213  0.06168276  0.47072888    -0.35400
C695        C  0.26095069  0.09303778  0.46847162     0.16900
C696        C  0.29149422  0.11109100  0.46378892     0.22800
C697        C  0.30927436  0.09882002  0.46085143    -0.33500
C698        C  0.29416144  0.06749078  0.46300540     0.16800
O699        O  0.25431310  0.02070601  0.46934347    -0.25500
C700        C  0.27915741  0.02043989  0.46531130     0.06600
C701        C  0.30459825  0.04889133  0.46124911    -0.30400
O702        O  0.30101270  0.13984263  0.46264540    -0.22200
C703        C  0.27623378  0.14023429  0.46658131    -0.02200
C704        C  0.25062820  0.11176442  0.47030511    -0.16700
H705        H  0.22191026  0.04777900  0.47451880     0.21300
H706        H  0.33323564  0.11273628  0.45718272     0.19700
H707        H  0.32748107  0.05496586  0.45773120     0.19600
H708        H  0.22781489  0.10580535  0.47398287     0.15500
C709        C  0.53867990  0.43486619  0.57925734     0.31000
C710        C  0.52557863  0.40370504  0.57952280    -0.35400
C711        C  0.49402889  0.38618527  0.57942505     0.16900
C712        C  0.47650790  0.39842778  0.57918425     0.22800
C713        C  0.48963218  0.42963597  0.57881344    -0.33500
C714        C  0.52123239  0.44718808  0.57879760     0.16800
O715        O  0.56775245  0.45541139  0.57966927    -0.25500
C716        C  0.56896020  0.48122321  0.57936410     0.06600
C717        C  0.54073886  0.47754773  0.57874301    -0.30400
O718        O  0.44740964  0.37775747  0.57946172    -0.22200
C719        C  0.44638830  0.35202164  0.57978973    -0.02200
C720        C  0.47467908  0.35587756  0.57976258    -0.16700
H721        H  0.53904720  0.39381676  0.57989859     0.21300
H722        H  0.47616506  0.43952612  0.57864884     0.19700
H723        H  0.53542788  0.49472026  0.57863917     0.19600
H724        H  0.48013836  0.33881244  0.58013786     0.15500
C725        C  0.92442520  0.38032778  0.56959865     0.31000
C726        C  0.90539229  0.39127359  0.56709287    -0.35400
C727        C  0.91961331  0.42266264  0.56758565     0.16900
C728        C  0.95036870  0.44185950  0.57046041     0.22800
C729        C  0.96932235  0.43092224  0.57289415    -0.33500
C730        C  0.95517825  0.39964848  0.57229208     0.16800
O731        O  0.91607015  0.35185779  0.57011241    -0.25500
C732        C  0.94186009  0.35309648  0.57308596     0.06600
C733        C  0.96689142  0.38222391  0.57451092    -0.30400
O734        O  0.95885248  0.47030568  0.57125324    -0.22200
C735        C  0.93326251  0.46944271  0.56874858    -0.02200
C736        C  0.90807549  0.44040102  0.56633857    -0.16700
H737        H  0.88122538  0.37639358  0.56514222     0.21300
H738        H  0.99341889  0.44577804  0.57534441     0.19700
H739        H  0.99024638  0.38945707  0.57717150     0.19600
H740        H  0.88467060  0.43339893  0.56464869     0.15500
C741        C  0.80325911  0.53740398  0.57222989     0.31000
C742        C  0.77161984  0.52092304  0.57105048    -0.35400
C743        C  0.75812757  0.53755893  0.57423882     0.16900
C744        C  0.77470544  0.56820898  0.57822129     0.22800
C745        C  0.80616039  0.58459743  0.57931434    -0.33500
C746        C  0.81955968  0.56804228  0.57621183     0.16800
O747        O  0.82070663  0.52654753  0.57056648    -0.25500
C748        C  0.84836160  0.55063907  0.57359981     0.06600
C749        C  0.84897691  0.57700668  0.57708493    -0.30400
O750        O  0.75774188  0.57934629  0.58083881    -0.22200
C751        C  0.72987663  0.55562823  0.57850363    -0.02200
C752        C  0.72859002  0.52892261  0.57438976    -0.16700
H753        H  0.75848945  0.49688093  0.56812124     0.21300
H754        H  0.81927028  0.60857808  0.58259408     0.19700
H755        H  0.86829494  0.59942767  0.58033814     0.19600
H756        H  0.70886957  0.50658161  0.57184687     0.15500
C757        C  0.66493297  0.96899624  0.69530209     0.31000
C758        C  0.68109636  0.98486479  0.71647940    -0.35400
C759        C  0.66802970  0.97175681  0.73940144     0.16900
C760        C  0.64088361  0.94466281  0.74161730     0.22800
C761        C  0.62470388  0.92846501  0.72021281    -0.33500
C762        C  0.63778494  0.94180096  0.69702748     0.16800
O763        O  0.67218797  0.97873524  0.67227337    -0.25500
C764        C  0.64961095  0.95767972  0.65867618     0.06600
C765        C  0.62743896  0.93391034  0.67301687    -0.30400
O766        O  0.63202333  0.93798535  0.76517077    -0.22200
C767        C  0.65390800  0.96121361  0.77793467    -0.02200
C768        C  0.67680044  0.98271877  0.76277996    -0.16700
H769        H  0.70191334  0.00662223  0.71516065     0.21300
H770        H  0.60297074  0.90761591  0.72153788     0.19700
H771        H  0.60621667  0.91464828  0.66683881     0.19600
H772        H  0.69639824  0.00412870  0.76815805     0.15500
C773        C  0.97932435  0.28604563  0.74254565     0.31000
C774        C  0.99285695  0.30288322  0.72071946    -0.35400
C775        C  0.98089477  0.28777903  0.69797458     0.16900
C776        C  0.95722800  0.25817783  0.69687106     0.22800
C777        C  0.94398814  0.24130716  0.71858795    -0.33500
C778        C  0.95587813  0.25637225  0.74121618     0.16800
O779        O  0.98536446  0.29610621  0.76577116    -0.25500
C780        C  0.96550844  0.27248673  0.77940981     0.06600
C781        C  0.94670845  0.24720806  0.76505394    -0.30400
O782        O  0.94794921  0.24910641  0.67389456    -0.22200
C783        C  0.96599598  0.27304494  0.65989832    -0.02200
C784        C  0.98709642  0.29778574  0.67385229    -0.16700
H785        H  0.01075249  0.32637936  0.72141347     0.21300
H786        H  0.92496111  0.21830245  0.71788894     0.19700
H787        H  0.92803425  0.22558425  0.77124182     0.19600
H788        H  0.00341095  0.32024733  0.66730203     0.15500
C789        C  0.77740891  0.10188228  0.86886370     0.31000
C790        C  0.80846400  0.11585667  0.87235817    -0.35400
C791        C  0.82531633  0.14717462  0.87086066     0.16900
C792        C  0.81257986  0.16376363  0.86627098     0.22800
C793        C  0.78130878  0.14972952  0.86306929    -0.33500
C794        C  0.76435957  0.11823381  0.86450843     0.16800
O795        O  0.75778054  0.07277083  0.86849845    -0.25500
C796        C  0.73171394  0.07024519  0.86396158     0.06600
C797        C  0.73427288  0.09776433  0.86134314    -0.30400
O798        O  0.83301411  0.19275759  0.86421212    -0.22200
C799        C  0.85899655  0.19453795  0.86759170    -0.02200
C800        C  0.85554687  0.16692642  0.87193194    -0.16700
H801        H  0.81885126  0.10312266  0.87543229     0.21300
H802        H  0.77104149  0.16239593  0.85912524     0.19700
H803        H  0.71672648  0.10198570  0.85722063     0.19600
H804        H  0.87289799  0.16203820  0.87455477     0.15500
C805        C  0.86554515  0.11764457  0.97937003     0.31000
C806        C  0.83453768  0.10325540  0.98420676    -0.35400
C807        C  0.81710490  0.07228719  0.97941955     0.16900
C808        C  0.82935379  0.05657034  0.97049960     0.22800
C809        C  0.86035905  0.07092175  0.96578455    -0.33500
C810        C  0.87777273  0.10187529  0.97053349     0.16800
O811        O  0.88589262  0.14658053  0.98187659    -0.25500
C812        C  0.91146754  0.14936965  0.97454045     0.06600
C813        C  0.90779653  0.12228475  0.96732760    -0.30400
O814        O  0.80886017  0.02789735  0.96687767    -0.22200
C815        C  0.78314317  0.02515880  0.97362083    -0.02200
C816        C  0.78687298  0.05203404  0.98161348    -0.16700
H817        H  0.82465314  0.11541752  0.99095707     0.21300
H818        H  0.87016565  0.05885268  0.95863301     0.19700
H819        H  0.92469668  0.11834085  0.96034166     0.19600
H820        H  0.76977130  0.05607107  0.98785865     0.15500
C821        C  0.64544296  0.60271381  0.24147935     0.31000
C822        C  0.64000791  0.58540752  0.21988231    -0.35400
C823        C  0.64615066  0.60073274  0.19704363     0.16900
C824        C  0.65700988  0.63101445  0.19561507     0.22800
C825        C  0.66281964  0.64833186  0.21715184    -0.33500
C826        C  0.65656442  0.63303426  0.23990291     0.16800
O827        O  0.63833851  0.59250861  0.26458128    -0.25500
C828        C  0.64513595  0.61666944  0.27791386     0.06600
C829        C  0.65665622  0.64248382  0.26350877    -0.30400
O830        O  0.65780670  0.64009922  0.17257869    -0.22200
C831        C  0.64745422  0.61542714  0.15892672    -0.02200
C832        C  0.64004162  0.59024729  0.17313746    -0.16700
H833        H  0.63016549  0.56139651  0.22077874     0.21300
H834        H  0.67014513  0.67179261  0.21619820     0.19700
H835        H  0.66232234  0.66455569  0.26936367     0.19600
H836        H  0.62925503  0.56717534  0.16699704     0.15500
C837        C  0.63776574  0.93000066  0.19280100     0.31000
C838        C  0.63229454  0.94155456  0.21436285    -0.35400
C839        C  0.63685393  0.93163138  0.23727472     0.16900
C840        C  0.64612044  0.91167775  0.23879558     0.22800
C841        C  0.65216232  0.90062672  0.21729580    -0.33500
C842        C  0.64758599  0.91050487  0.19445047     0.16800
O843        O  0.63170512  0.93351759  0.16961583    -0.25500
C844        C  0.63788268  0.91617616  0.15625035     0.06600
C845        C  0.64805453  0.90151034  0.17074454    -0.30400
O846        O  0.64578814  0.90280837  0.26184226    -0.22200
C847        C  0.63656698  0.91750001  0.27543110    -0.02200
C848        C  0.63082183  0.93593372  0.26115144    -0.16700
H849        H  0.62361030  0.95603725  0.21334734     0.21300
H850        H  0.65846315  0.88422135  0.21830207     0.19700
H851        H  0.65283124  0.88485969  0.16488418     0.19600
H852        H  0.62144781  0.94880901  0.26725006     0.15500
C853        C  0.58919922  0.71636179  0.06719721     0.31000
C854        C  0.59281538  0.73988354  0.05227737    -0.35400
C855        C  0.58608427  0.75947466  0.06368986     0.16900
C856        C  0.57626928  0.75608435  0.08806415     0.22800
C857        C  0.57237235  0.73235819  0.10291532    -0.33500
C858        C  0.57937028  0.71290289  0.09156760     0.16800
O859        O  0.59589991  0.69653675  0.06076425    -0.25500
C860        C  0.59030988  0.68017648  0.08126259     0.06600
C861        C  0.57999469  0.68930894  0.10104871    -0.30400
O862        O  0.57397943  0.77855753  0.09561777    -0.22200
C863        C  0.58247839  0.79653637  0.07583945    -0.02200
C864        C  0.59003250  0.78569104  0.05538710    -0.16700
H865        H  0.60138268  0.74333500  0.03341045     0.21300
H866        H  0.56556067  0.72996059  0.12225202     0.19700
H867        H  0.57454679  0.68037411  0.11980831     0.19600
H868        H  0.59905979  0.79655405  0.03759123     0.15500
C869        C  0.33062462  0.28023657  0.24110099     0.31000
C870        C  0.34800189  0.28617472  0.21938838    -0.35400
C871        C  0.33256303  0.28025502  0.19662345     0.16900
C872        C  0.30210675  0.26916893  0.19537166     0.22800
C873        C  0.28465009  0.26257318  0.21700055    -0.33500
C874        C  0.30008142  0.26865340  0.23966318     0.16800
O875        O  0.34090685  0.28731218  0.26419248    -0.25500
C876        C  0.31655449  0.28006402  0.27761723     0.06600
C877        C  0.29057239  0.26820996  0.26330804    -0.30400
O878        O  0.29295140  0.26876930  0.17243875    -0.22200
C879        C  0.31772921  0.27943739  0.15866887    -0.02200
C880        C  0.34304969  0.28673012  0.17267951    -0.16700
H881        H  0.37215062  0.29629860  0.22015829     0.21300
H882        H  0.26100542  0.25492442  0.21620554     0.19700
H883        H  0.26828787  0.26207760  0.26927479     0.19600
H884        H  0.36616904  0.29751431  0.16639455     0.15500
C885        C  0.44878386  0.42949033  0.07878247     0.31000
C886        C  0.48000452  0.44503809  0.07480904    -0.35400
C887        C  0.49596107  0.47607486  0.07907047     0.16900
C888        C  0.48215146  0.49086022  0.08656740     0.22800
C889        C  0.45091793  0.47533269  0.09046183    -0.33500
C890        C  0.43497737  0.44426120  0.08632947     0.16800
O891        O  0.42958906  0.40031090  0.07638012    -0.25500
C892        C  0.40317380  0.39634955  0.08252040     0.06600
C893        C  0.40512570  0.42289911  0.08881897    -0.30400
O894        O  0.50143954  0.51994166  0.08945581    -0.22200
C895        C  0.52790868  0.52377257  0.08376983    -0.02200
C896        C  0.52591673  0.49728697  0.07721625    -0.16700
H897        H  0.49110243  0.43369447  0.06899186     0.21300
H898        H  0.43985446  0.48665077  0.09645229     0.19700
H899        H  0.38719088  0.42593202  0.09456718     0.19600
H900        H  0.54390370  0.49418989  0.07178850     0.15500
C901        C  0.04132029  0.33141175  0.24395180     0.31000
C902        C  0.05710899  0.34733492  0.22263149    -0.35400
C903        C  0.04357809  0.33432172  0.19984788     0.16900
C904        C  0.01628968  0.30734877  0.19786191     0.22800
C905        C  0.00022252  0.29135618  0.21943160    -0.33500
C906        C  0.01386107  0.30450804  0.24249065     0.16800
O907        O  0.05053056  0.33955751  0.26697759    -0.25500
C908        C  0.02881959  0.31781866  0.28082703     0.06600
C909        C  0.00522365  0.29526785  0.26666951    -0.30400
O910        O  0.00854927  0.29924454  0.17428201    -0.22200
C911        C  0.03128684  0.32151098  0.16128846    -0.02200
C912        C  0.05351741  0.34381842  0.17633469    -0.16700
H913        H  0.07871115  0.36835744  0.22374313     0.21300
H914        H  0.97885611  0.27010460  0.21832484     0.19700
H915        H  0.98504559  0.27502052  0.27318300     0.19600
H916        H  0.07437040  0.36399109  0.17070511     0.15500
C917        C  0.16929761  0.33589984  0.07386422     0.31000
C918        C  0.19966246  0.34995315  0.06677378    -0.35400
C919        C  0.21328963  0.33375863  0.07153941     0.16900
C920        C  0.19805239  0.30565286  0.08245287     0.22800
C921        C  0.16772893  0.29158230  0.08946364    -0.33500
C922        C  0.15415669  0.30778748  0.08475866     0.16800
O923        O  0.15207845  0.34689729  0.07121275    -0.25500
C924        C  0.12560929  0.32548871  0.08050319     0.06600
C925        C  0.12560987  0.30067938  0.08921322    -0.30400
O926        O  0.21530642  0.29488079  0.08575013    -0.22200
C927        C  0.24196296  0.31638291  0.07691641    -0.02200
C928        C  0.24208706  0.34108010  0.06773405    -0.16700
H929        H  0.21184877  0.37202227  0.05830660     0.21300
H930        H  0.15562949  0.26963037  0.09814886     0.19700
H931        H  0.10716853  0.28030093  0.09747288     0.19600
H932        H  0.26078011  0.36159400  0.05988365     0.15500
C933        C  0.71574216  0.78294105  0.96990376     0.31000
C934        C  0.73335346  0.81444113  0.97188521    -0.35400
C935        C  0.71813777  0.82936919  0.96819797     0.16900
C936        C  0.68772649  0.81431598  0.96291661     0.22800
C937        C  0.67016347  0.78290604  0.96100579    -0.33500
C938        C  0.68532013  0.76802234  0.96472808     0.16800
O939        O  0.72522513  0.76440793  0.97244069    -0.25500
C940        C  0.70050779  0.73731288  0.96882892     0.06600
C941        C  0.67502765  0.73823598  0.96408442    -0.30400
O942        O  0.67790334  0.83253431  0.96070612    -0.22200
C943        C  0.70227466  0.85968940  0.96466389    -0.02200
C944        C  0.72802686  0.85913569  0.96934787    -0.16700
H945        H  0.75718656  0.82644472  0.97608065     0.21300
H946        H  0.64627579  0.77088245  0.95701996     0.19700
H947        H  0.65227644  0.71964187  0.96046653     0.19600
H948        H  0.75053065  0.87784372  0.97352968     0.15500
C949        C  0.11916993  0.24010108  0.96161543     0.31000
C950        C  0.14951144  0.25467397  0.95433939    -0.35400
C951        C  0.16420458  0.23972042  0.95999148     0.16900
C952        C  0.15006452  0.21227018  0.97195918     0.22800
C953        C  0.11972263  0.19774049  0.97934878    -0.33500
C954        C  0.10502244  0.21274973  0.97374491     0.16800
O955        O  0.10117977  0.25006487  0.95815700    -0.25500
C956        C  0.07515875  0.22891243  0.96829086     0.06600
C957        C  0.07622645  0.20516315  0.97832349    -0.30400
O958        O  0.16821515  0.20247265  0.97547914    -0.22200
C959        C  0.19430257  0.22396243  0.96564444    -0.02200
C960        C  0.19312145  0.24767822  0.95576655    -0.16700
H961        H  0.16088566  0.27620115  0.94495911     0.21300
H962        H  0.10840379  0.17629824  0.98885806     0.19700
H963        H  0.05838082  0.18524124  0.98757609     0.19600
H964        H  0.21105527  0.26793705  0.94695489     0.15500
C965        C  0.33519890  0.94230173  0.74274997     0.31000
C966        C  0.34027710  0.93084100  0.72093192    -0.35400
C967        C  0.33422856  0.94002275  0.69828158     0.16900
C968        C  0.32399370  0.95922313  0.69725188     0.22800
C969        C  0.31841596  0.97019467  0.71899090    -0.33500
C970        C  0.32442000  0.96103001  0.74153532     0.16800
O971        O  0.34220199  0.93925351  0.76575580    -0.25500
C972        C  0.33559933  0.95611304  0.77936516     0.06600
C973        C  0.32434766  0.97003225  0.76524908    -0.30400
O974        O  0.32315041  0.96771855  0.67433674    -0.22200
C975        C  0.33260803  0.95356346  0.66033524    -0.02200
C976        C  0.33962200  0.93579567  0.67419683    -0.16700
H977        H  0.34967830  0.91696358  0.72152808     0.21300
H978        H  0.31136328  0.98603679  0.71834196     0.19700
H979        H  0.31888724  0.98610808  0.77136579     0.19600
H980        H  0.34959318  0.92362384  0.66768095     0.15500
C981        C  0.47755684  0.96701162  0.86648822     0.31000
C982        C  0.48913050  0.94848669  0.86813881    -0.35400
C983        C  0.52067783  0.96329593  0.86791756     0.16900
C984        C  0.53939146  0.99416431  0.86635235     0.22800
C985        C  0.52785367  0.01262659  0.86496039    -0.33500
C986        C  0.49643214  0.99785935  0.86499230     0.16800
O987        O  0.44885445  0.95803491  0.86530108    -0.25500
C988        C  0.44951200  0.98349663  0.86301545     0.06600
C989        C  0.47847263  0.00896187  0.86274955    -0.30400
O990        O  0.56804321  0.00328567  0.86507692    -0.22200
C991        C  0.56783611  0.97802472  0.86579851    -0.02200
C992        C  0.53901226  0.95234971  0.86771071    -0.16700
H993        H  0.47459201  0.92425820  0.86889816     0.21300
H994        H  0.54238005  0.03678796  0.86329540     0.19700
H995        H  0.48526509  0.03219063  0.86075459     0.19600
H996        H  0.53253115  0.92911333  0.86800840     0.15500
C997        C  0.31758632  0.24047296  0.74120255     0.31000
C998        C  0.31338607  0.22355357  0.71968189    -0.35400
C999        C  0.31843081  0.23857443  0.69689743     0.16900
C1000       C  0.32669248  0.26815870  0.69529383     0.22800
C1001       C  0.33034009  0.28494072  0.71684306    -0.33500
C1002       C  0.32563198  0.27000175  0.73969681     0.16800
O1003       O  0.31806384  0.23209316  0.76426438    -0.25500
C1004       C  0.32646344  0.25648413  0.77781286     0.06600
C1005       C  0.33122502  0.28070770  0.76353519    -0.30400
O1006       O  0.33333540  0.27860200  0.67224616    -0.22200
C1007       C  0.32922484  0.25537833  0.65895565    -0.02200
C1008       C  0.31985146  0.22988061  0.67332720    -0.16700
H1009       H  0.30838324  0.20083203  0.72067927     0.21300
H1010       H  0.33808457  0.30850324  0.71590729     0.19700
H1011       H  0.34006506  0.30353396  0.76957040     0.19600
H1012       H  0.31653096  0.20867246  0.66748865     0.15500
C1013       C  0.39274707  0.11657545  0.84910257     0.31000
C1014       C  0.40273426  0.14395894  0.83691726    -0.35400
C1015       C  0.39238367  0.16144706  0.84689169     0.16900
C1016       C  0.37355719  0.15249849  0.86739337     0.22800
C1017       C  0.36377444  0.12536067  0.87960350    -0.33500
C1018       C  0.37406708  0.10798919  0.86967048     0.16800
O1019       O  0.39825080  0.09589629  0.84236598    -0.25500
C1020       C  0.38290668  0.07401225  0.85894016     0.06600
C1021       C  0.36753601  0.08036796  0.87633704    -0.30400
O1022       O  0.36549058  0.17143532  0.87299861    -0.22200
C1023       C  0.37935379  0.19294802  0.85599198    -0.02200
C1024       C  0.39650778  0.18806701  0.83922011    -0.16700
H1025       H  0.41697199  0.15081101  0.82053935     0.21300
H1026       H  0.34862784  0.11798891  0.89542463     0.19700
H1027       H  0.35279398  0.06618255  0.89120189     0.19600
H1028       H  0.40931411  0.20163242  0.82335223     0.15500
C1029       C  0.00500316  0.62091288  0.19642347     0.31000
C1030       C  0.01716767  0.63787198  0.21821924    -0.35400
C1031       C  0.00582106  0.62230580  0.24074782     0.16900
C1032       C  0.98388402  0.59205686  0.24190067     0.22800
C1033       C  0.97120614  0.57517177  0.22001526    -0.33500
C1034       C  0.98267073  0.59076989  0.19737836     0.16800
O1035       O  0.01492847  0.63025084  0.17359331    -0.25500
C1036       C  0.99866877  0.60591553  0.15956049     0.06600
C1037       C  0.97801026  0.58069014  0.17332426    -0.30400
O1038       O  0.97915342  0.58145685  0.26493483    -0.22200
C1039       C  0.99821366  0.60532552  0.27862712    -0.02200
C1040       C  0.01516809  0.63132135  0.26453423    -0.16700
H1041       H  0.03543878  0.66123634  0.21765292     0.21300
H1042       H  0.95477222  0.55122907  0.22058006     0.19700
H1043       H  0.96344881  0.55784300  0.16680990     0.19600
H1044       H  0.03333933  0.65319820  0.27072161     0.15500
C1045       C  0.04522782  0.49562889  0.06937021     0.31000
C1046       C  0.06445397  0.48492865  0.06703520    -0.35400
C1047       C  0.05053236  0.45361219  0.06738399     0.16900
C1048       C  0.01977248  0.43407675  0.06983866     0.22800
C1049       C  0.00048243  0.44478987  0.07191394    -0.33500
C1050       C  0.01443056  0.47616317  0.07161529     0.16800
O1051       O  0.05360980  0.52406842  0.07053258    -0.25500
C1052       C  0.02787105  0.52290242  0.07350561     0.06600
C1053       C  0.00271994  0.49366860  0.07423713    -0.30400
O1054       O  0.01182160  0.40572594  0.07114380    -0.22200
C1055       C  0.03783920  0.40715465  0.06942872    -0.02200
C1056       C  0.06262994  0.43637297  0.06693882    -0.16700
H1057       H  0.08866325  0.49999700  0.06563312     0.21300
H1058       H  0.97637595  0.42974897  0.07421198     0.19700
H1059       H  0.97934805  0.48641849  0.07686567     0.19600
H1060       H  0.08622399  0.44386818  0.06594436     0.15500
C1061       C  0.30941348  0.92062336  0.19617177     0.31000
C1062       C  0.29133884  0.91033776  0.21764112    -0.35400
C1063       C  0.30660928  0.91881615  0.24049620     0.16900
C1064       C  0.33762421  0.93630713  0.24222644     0.22800
C1065       C  0.35575823  0.94702348  0.22068653    -0.33500
C1066       C  0.34043125  0.93847024  0.19774335     0.16800
O1067       O  0.29983894  0.91282342  0.17306189    -0.25500
C1068       C  0.32495653  0.92599689  0.15947849     0.06600
C1069       C  0.35094947  0.94241723  0.17383354    -0.30400
O1070       O  0.34714364  0.93890445  0.26545176    -0.22200
C1071       C  0.32185786  0.92295180  0.27871828    -0.02200
C1072       C  0.29600227  0.91013661  0.26413568    -0.16700
H1073       H  0.26707109  0.89552612  0.21658752     0.21300
H1074       H  0.38012124  0.95992266  0.22172296     0.19700
H1075       H  0.37417878  0.95379698  0.16771462     0.19600
H1076       H  0.27286001  0.89490110  0.26992475     0.15500
C1077       C  0.47912063  0.87951411  0.07228398     0.31000
C1078       C  0.44752033  0.86261359  0.07173364    -0.35400
C1079       C  0.43370032  0.87909679  0.07160847     0.16900
C1080       C  0.44979764  0.91009925  0.07193976     0.22800
C1081       C  0.48144578  0.92702856  0.07222420    -0.33500
C1082       C  0.49528469  0.91052278  0.07242302     0.16800
O1083       O  0.49659971  0.86869731  0.07343425    -0.25500
C1084       C  0.52433162  0.89308827  0.07425349     0.06600
C1085       C  0.52491532  0.91974561  0.07361889    -0.30400
O1086       O  0.43215870  0.92077726  0.07292717    -0.22200
C1087       C  0.40445162  0.89625659  0.07318350    -0.02200
C1088       C  0.40405179  0.86972729  0.07229285    -0.16700
H1089       H  0.43460078  0.83830997  0.07191923     0.21300
H1090       H  0.49434988  0.95132358  0.07278942     0.19700
H1091       H  0.54431609  0.94253865  0.07439128     0.19600
H1092       H  0.38472663  0.84687595  0.07282835     0.15500
C1093       C  0.15130795  0.72700428  0.06793600     0.31000
C1094       C  0.16792906  0.75597386  0.05778105    -0.35400
C1095       C  0.19782598  0.77399880  0.06584907     0.16900
C1096       C  0.21057745  0.76425625  0.08273836     0.22800
C1097       C  0.19400110  0.73512129  0.09270428    -0.33500
C1098       C  0.16404731  0.71704898  0.08463253     0.16800
O1099       O  0.12260917  0.70693319  0.06385356    -0.25500
C1100       C  0.11690721  0.68376332  0.07800193     0.06600
C1101       C  0.14183367  0.68866577  0.09129109    -0.30400
O1102       O  0.23844203  0.78547783  0.08864794    -0.22200
C1103       C  0.24351262  0.80900997  0.07531396    -0.02200
C1104       C  0.21910681  0.80313450  0.06071375    -0.16700
H1105       H  0.15803466  0.76412275  0.04493355     0.21300
H1106       H  0.20356823  0.72733358  0.10622564     0.19700
H1107       H  0.14312459  0.67383243  0.10443127     0.19600
H1108       H  0.21702346  0.81844678  0.04874923     0.15500
C1109       C  0.82600730  0.66514214  0.96854223     0.31000
C1110       C  0.85411581  0.67610425  0.95721219    -0.35400
C1111       C  0.87100254  0.66475876  0.96645441     0.16900
C1112       C  0.86102161  0.64404560  0.98557894     0.22800
C1113       C  0.83291639  0.63315622  0.99701924    -0.33500
C1114       C  0.81594226  0.64446062  0.98770153     0.16800
O1115       O  0.80618726  0.67202738  0.96224084    -0.25500
C1116       C  0.78301707  0.65551468  0.97749650     0.06600
C1117       C  0.78784007  0.63795695  0.99380003    -0.30400
O1118       O  0.88028614  0.63602705  0.99081488    -0.22200
C1119       C  0.90288474  0.65191846  0.97486150    -0.02200
C1120       C  0.89832002  0.67016741  0.95929055    -0.16700
H1121       H  0.86208571  0.69206503  0.94200080     0.21300
H1122       H  0.82467372  0.61671134  0.01187287     0.19700
H1123       H  0.77261768  0.62227639  0.00773769     0.19600
H1124       H  0.91285455  0.68494362  0.94459970     0.15500
C1125       C  0.11379885  0.76293705  0.96569791     0.31000
C1126       C  0.14520355  0.77669450  0.96515296    -0.35400
C1127       C  0.16226160  0.80816608  0.96580354     0.16900
C1128       C  0.14936885  0.82504235  0.96687015     0.22800
C1129       C  0.11791587  0.81127238  0.96752713    -0.33500
C1130       C  0.10082400  0.77973162  0.96696299     0.16800
O1131       O  0.09362903  0.73378775  0.96536006    -0.25500
C1132       C  0.06734436  0.73180331  0.96655065     0.06600
C1133       C  0.07041722  0.75967589  0.96762963    -0.30400
O1134       O  0.16969511  0.85418240  0.96738543    -0.22200
C1135       C  0.19589181  0.85590289  0.96665696    -0.02200
C1136       C  0.19263844  0.82799431  0.96568577    -0.16700
H1137       H  0.15562080  0.76374326  0.96434891     0.21300
H1138       H  0.10751015  0.82422522  0.96850881     0.19700
H1139       H  0.05281698  0.76441189  0.96879193     0.19600
H1140       H  0.21013399  0.82307319  0.96509796     0.15500
C1141       C  0.26260940  0.04909352  0.97544314     0.31000
C1142       C  0.24459075  0.06096630  0.97170784    -0.35400
C1143       C  0.25912573  0.09219005  0.97435216     0.16900
C1144       C  0.28928770  0.11044003  0.98031167     0.22800
C1145       C  0.30722569  0.09853790  0.98426531    -0.33500
C1146       C  0.29271413  0.06735154  0.98158640     0.16800
O1147       O  0.25407789  0.02076459  0.97272468    -0.25500
C1148       C  0.27903670  0.02092985  0.97721847     0.06600
C1149       C  0.30373481  0.04923782  0.98297768    -0.30400
O1150       O  0.29849608  0.13909531  0.98098113    -0.22200
C1151       C  0.27392377  0.13923008  0.97542569    -0.02200
C1152       C  0.24871016  0.11068451  0.97117516    -0.16700
H1153       H  0.22106678  0.04693319  0.96659147     0.21300
H1154       H  0.33097435  0.11267784  0.98863230     0.19700
H1155       H  0.32664082  0.05563640  0.98683290     0.19600
H1156       H  0.22621040  0.10456575  0.96602034     0.15500
C1157       C  0.92909369  0.54781631  0.74140823     0.31000
C1158       C  0.91292521  0.53265154  0.71998792    -0.35400
C1159       C  0.92726172  0.54504657  0.69723774     0.16900
C1160       C  0.95568869  0.57069783  0.69538809     0.22800
C1161       C  0.97198601  0.58605390  0.71702798    -0.33500
C1162       C  0.95751589  0.57357495  0.74003406     0.16800
O1163       O  0.91964752  0.53972426  0.76445282    -0.25500
C1164       C  0.94212963  0.56041883  0.77839652     0.06600
C1165       C  0.96641426  0.58224376  0.76425125    -0.30400
O1166       O  0.96435245  0.57822981  0.67185316    -0.22200
C1167       C  0.94098624  0.55703299  0.65871813    -0.02200
C1168       C  0.91744816  0.53591987  0.67364228    -0.16700
H1169       H  0.89058332  0.51250630  0.72100376     0.21300
H1170       H  0.99426205  0.60626581  0.71601143     0.19700
H1171       H  0.98743103  0.60145407  0.77081269     0.19600
H1172       H  0.89595607  0.51668359  0.66787214     0.15500
C1173       C  0.92637077  0.43023068  0.87293579     0.31000
C1174       C  0.91007319  0.39876424  0.87388587    -0.35400
C1175       C  0.92705851  0.38554408  0.87198448     0.16900
C1176       C  0.95802826  0.40206573  0.86945534     0.22800
C1177       C  0.97441212  0.43363826  0.86877256    -0.33500
C1178       C  0.95736222  0.44689898  0.87053828     0.16800
O1179       O  0.91477442  0.44702771  0.87288104    -0.25500
C1180       C  0.93859533  0.47488649  0.87044811     0.06600
C1181       C  0.96573610  0.47621726  0.86900856    -0.30400
O1182       O  0.96909248  0.38486908  0.86689983    -0.22200
C1183       C  0.94483116  0.35702121  0.86780544    -0.02200
C1184       C  0.91812763  0.35613566  0.87102319    -0.16700
H1185       H  0.88573958  0.38547298  0.87531953     0.21300
H1186       H  0.99863525  0.44689135  0.86637186     0.19700
H1187       H  0.98817714  0.49580171  0.86629440     0.19600
H1188       H  0.89536630  0.33661847  0.87194620     0.15500
C1189       C  0.66926304  0.60233738  0.74252288     0.31000
C1190       C  0.68684135  0.60737269  0.72125137    -0.35400
C1191       C  0.67241525  0.60301663  0.69831575     0.16900
C1192       C  0.64269223  0.59451496  0.69625181     0.22800
C1193       C  0.62513721  0.58994207  0.71766616    -0.33500
C1194       C  0.63958194  0.59408797  0.74077978     0.16800
O1195       O  0.67754136  0.60204683  0.76560397    -0.25500
C1196       C  0.65303911  0.59369228  0.77910878     0.06600
C1197       C  0.62865770  0.58859539  0.76469501    -0.30400
O1198       O  0.63312947  0.58893334  0.67287885    -0.22200
C1199       C  0.65711777  0.59395844  0.65997181    -0.02200
C1200       C  0.68214297  0.60288847  0.67488183    -0.16700
H1201       H  0.70978139  0.61278795  0.72251773     0.21300
H1202       H  0.60151569  0.58224573  0.71641445     0.19700
H1203       H  0.60579852  0.58009442  0.77073800     0.19600
H1204       H  0.70383013  0.60689579  0.66939595     0.15500
C1205       C  0.48924321  0.38540322  0.86314435     0.31000
C1206       C  0.52079761  0.40117840  0.86350194    -0.35400
C1207       C  0.53581451  0.43256621  0.86386773     0.16900
C1208       C  0.52092533  0.44756544  0.86406911     0.22800
C1209       C  0.48928886  0.43175145  0.86397618    -0.33500
C1210       C  0.47423605  0.40029031  0.86338548     0.16800
O1211       O  0.47078151  0.35600394  0.86158680    -0.25500
C1212       C  0.44357415  0.35198215  0.86073546     0.06600
C1213       C  0.44431550  0.37870807  0.86188247    -0.30400
O1214       O  0.53963826  0.47705293  0.86333104    -0.22200
C1215       C  0.56678855  0.48083579  0.86260275    -0.02200
C1216       C  0.56573351  0.45396225  0.86299585    -0.16700
H1217       H  0.53282744  0.38978413  0.86290136     0.21300
H1218       H  0.47727044  0.44316283  0.86373493     0.19700
H1219       H  0.42556230  0.38177064  0.86119018     0.19600
H1220       H  0.58435120  0.45069150  0.86216821     0.15500
C1221       C  0.80164075  0.53915542  0.86215644     0.31000
C1222       C  0.77023083  0.52332375  0.86542748    -0.35400
C1223       C  0.75688004  0.54011841  0.86245055     0.16900
C1224       C  0.77332986  0.57038917  0.85679438     0.22800
C1225       C  0.80462687  0.58617401  0.85357916    -0.33500
C1226       C  0.81789066  0.56938912  0.85639065     0.16800
O1227       O  0.81891467  0.52808148  0.86392685    -0.25500
C1228       C  0.84647393  0.55160996  0.85915864     0.06600
C1229       C  0.84712168  0.57780322  0.85430243    -0.30400
O1230       O  0.75634083  0.58161993  0.85457153    -0.22200
C1231       C  0.72859864  0.55825141  0.85875289    -0.02200
C1232       C  0.72750185  0.53182761  0.86381805    -0.16700
H1233       H  0.75712578  0.49960051  0.86981913     0.21300
H1234       H  0.81770550  0.60985726  0.84902421     0.19700
H1235       H  0.86642185  0.59990043  0.84998098     0.19600
H1236       H  0.70792794  0.50977968  0.86777000     0.15500
loop_ 
_geom_bond_atom_site_label_1 
_geom_bond_atom_site_label_2 
_geom_bond_distance 
_geom_bond_site_symmetry_2 
_ccdc_geom_bond_type 
O1            C4   1.260       .  A
O1           Cd6   2.450       .  S
C2           O11   1.260       .  A
C2            O7   1.267       .  A
C2          C119   1.473       .  S
O3            C9   1.265       .  A
O3           Cd6   2.440       .  S
C4           O12   1.267       .  A
C4         C1196   1.475       .  S
C5           O10   1.267       .  A
C5            O8   1.265       .  A
C5         C1231   1.465       .  S
Cd6          O13   2.489       .  S
Cd6          O12   2.538       .  S
Cd6          O11   2.461       .  S
Cd6           O7   2.514       .  S
Cd6          O10   2.468       .  S
Cd6           O8   2.448       .  S
C9           O13   1.267       .  A
C9         C1215   1.470       .  S
O14          C17   1.272       .  A
O14         Cd19   2.543       .  S
C15          O24   1.264       .  A
C15          O20   1.271       .  A
C15          C43   1.476       .  S
O16          C22   1.268       .  A
O16         Cd19   2.492       .  S
C17          O25   1.262       .  A
C17        C1164   1.476       .  S
C18          O23   1.267       .  A
C18          O21   1.267       .  A
C18        C1180   1.472       .  S
Cd19         O26   2.426       .  S
Cd19         O25   2.421       .  S
Cd19         O24   2.455       .  S
Cd19         O20   2.514       .  S
Cd19         O23   2.464       .  S
Cd19         O21   2.474       .  S
C22          O26   1.264       .  A
C22        C1228   1.468       .  S
O27          C30   1.265   1_556  A
O27         Cd32   2.468       .  S
C28          O37   1.263       .  A
C28          O33   1.263       .  A
C28          C95   1.469       .  S
O29          C35   1.264       .  A
O29         Cd32   2.470       .  S
C30          O38   1.264       .  A
C30          C56   1.468       .  S
C31          O36   1.263       .  A
C31          O34   1.265       .  A
C31        C1148   1.466   1_565  S
Cd32         O39   2.468       .  S
Cd32         O38   2.484   1_556  S
Cd32         O37   2.503       .  S
Cd32         O33   2.471       .  S
Cd32         O36   2.461       .  S
Cd32         O34   2.464       .  S
C35          O39   1.266       .  A
C35        C1135   1.469       .  S
O40          C43   1.265       .  A
O40         Cd45   2.485       .  S
C41          O50   1.264       .  A
C41          O46   1.266   1_554  A
C41          C67   1.471   1_655  S
O42          C48   1.265       .  A
O42         Cd45   2.486   1_455  S
C43          O51   1.264       .  A
C44          O49   1.265       .  A
C44          O47   1.265       .  A
C44        C1119   1.471       .  S
Cd45         O52   2.479   1_655  S
Cd45         O51   2.512       .  S
Cd45         O50   2.499   1_556  S
Cd45         O46   2.471       .  S
Cd45         O49   2.462       .  S
Cd45         O47   2.480       .  S
C48          O52   1.264       .  A
C48        C1132   1.472       .  S
O53          C56   1.267       .  A
O53         Cd58   2.491       .  S
C54          O63   1.264       .  A
C54          O59   1.262       .  A
C54        C1068   1.475       .  S
O55          C61   1.266       .  A
O55         Cd58   2.487       .  S
C56          O64   1.262       .  A
C57          O62   1.266       .  A
C57          O60   1.266       .  A
C57        C1087   1.469       .  S
Cd58         O65   2.438       .  S
Cd58         O64   2.455       .  S
Cd58         O63   2.510       .  S
Cd58         O59   2.479       .  S
Cd58         O62   2.450       .  S
Cd58         O60   2.472       .  S
C61          O65   1.262       .  A
C61        C1103   1.466       .  S
O66          C69   1.261       .  A
O66         Cd71   2.469       .  S
C67          O76   1.262       .  A
C67          O72   1.268   1_455  A
O68          C74   1.267       .  A
O68         Cd71   2.473       .  S
C69          O77   1.266   1_455  A
C69        C1036   1.474   1_455  S
C70          O75   1.264       .  A
C70          O73   1.267       .  A
C70        C1052   1.473       .  S
Cd71         O78   2.438       .  S
Cd71         O77   2.516   1_455  S
Cd71         O76   2.452       .  S
Cd71         O72   2.509   1_455  S
Cd71         O75   2.468       .  S
Cd71         O73   2.491       .  S
C74          O78   1.263       .  A
C74        C1100   1.463       .  S
O79          C82   1.262       .  A
O79         Cd84   2.474       .  S
C80          O89   1.262       .  A
C80          O85   1.267       .  A
C80         C108   1.471       .  S
O81          C87   1.266       .  A
O81         Cd84   2.487       .  S
C82          O90   1.265       .  A
C82        C1004   1.473       .  S
C83          O88   1.266       .  A
C83          O86   1.266       .  A
C83        C1212   1.469       .  S
Cd84         O91   2.427       .  S
Cd84         O90   2.502       .  S
Cd84         O89   2.459       .  S
Cd84         O85   2.505       .  S
Cd84         O88   2.472       .  S
Cd84         O86   2.460       .  S
C87          O91   1.262       .  A
C87        C1023   1.463       .  S
O92          C95   1.268       .  A
O92         Cd97   2.498       .  S
C93         O102   1.262       .  A
C93          O98   1.264       .  A
C93         C972   1.472       .  S
O94         C100   1.267       .  A
O94         Cd97   2.495   1_545  S
C95         O103   1.263       .  A
C96         O101   1.267   1_565  A
C96          O99   1.265       .  A
C96         C988   1.465       .  S
Cd97        O104   2.416   1_565  S
Cd97        O103   2.445       .  S
Cd97        O102   2.459       .  S
Cd97         O98   2.506       .  S
Cd97        O101   2.454   1_565  S
Cd97         O99   2.455       .  S
C100        O104   1.262       .  A
C100       C1020   1.464       .  S
O105        C108   1.266       .  A
O105       Cd110   2.471       .  S
C106        O115   1.263       .  A
C106        O111   1.265   1_554  A
C106        C145   1.468       .  S
O107        C113   1.265       .  A
O107       Cd110   2.488       .  S
C108        O116   1.265       .  A
C109        O114   1.266       .  A
C109        O112   1.264       .  A
C109       C1151   1.469       .  S
Cd110       O117   2.464       .  S
Cd110       O116   2.493       .  S
Cd110       O115   2.478   1_556  S
Cd110       O111   2.479       .  S
Cd110       O114   2.481       .  S
Cd110       O112   2.460       .  S
C113        O117   1.264       .  A
C113        C959   1.472       .  S
O118        C121   1.267   1_556  A
O118       Cd123   2.487       .  S
C119        O128   1.263       .  A
C119        O124   1.266       .  A
O120        C126   1.266       .  A
O120       Cd123   2.495       .  S
C121        O129   1.264       .  A
C121        C171   1.470       .  S
C122        O127   1.264       .  A
C122        O125   1.264       .  A
C122       C1116   1.474       .  S
Cd123       O130   2.467       .  S
Cd123       O129   2.466   1_556  S
Cd123       O128   2.498       .  S
Cd123       O124   2.486       .  S
Cd123       O127   2.487       .  S
Cd123       O125   2.492       .  S
C126        O130   1.264       .  A
C126        C940   1.474       .  S
O131        C134   1.272       .  A
O131       Cd136   2.540       .  S
C132        O141   1.263       .  A
C132        O137   1.271       .  A
C132        C197   1.473       .  S
O133        C139   1.268       .  A
O133       Cd136   2.464       .  S
C134        O142   1.264       .  A
C134        C911   1.478       .  S
C135        O140   1.268       .  A
C135        O138   1.265       .  A
C135        C924   1.468       .  S
Cd136       O143   2.479       .  S
Cd136       O142   2.412       .  S
Cd136       O141   2.439       .  S
Cd136       O137   2.511       .  S
Cd136       O140   2.482       .  S
Cd136       O138   2.442       .  S
C139        O143   1.267       .  A
C139       C1055   1.474       .  S
O144        C147   1.266       .  A
O144       Cd149   2.511       .  S
C145        O154   1.261       .  A
C145        O150   1.265       .  A
O146        C152   1.266       .  A
O146       Cd149   2.468       .  S
C147        O155   1.261       .  A
C147        C879   1.472       .  S
C148        O153   1.266       .  A
C148        O151   1.267       .  A
C148        C892   1.467       .  S
Cd149       O156   2.441       .  S
Cd149       O155   2.456       .  S
Cd149       O154   2.464       .  S
Cd149       O150   2.492       .  S
Cd149       O153   2.456       .  S
Cd149       O151   2.465       .  S
C152        O156   1.263       .  A
C152        C927   1.463       .  S
O157        C160   1.264       .  A
O157       Cd162   2.494       .  S
C158        O167   1.262       .  A
C158        O163   1.268       .  A
C158        C186   1.474       .  S
O159        C165   1.265       .  A
O159       Cd162   2.483       .  S
C160        O168   1.265       .  A
C160        C844   1.475       .  S
C161        O166   1.264       .  A
C161        O164   1.265       .  A
C161       C1084   1.469       .  S
Cd162       O169   2.450       .  S
Cd162       O168   2.480       .  S
Cd162       O167   2.451       .  S
Cd162       O163   2.521       .  S
Cd162       O166   2.473       .  S
Cd162       O164   2.469       .  S
C165        O169   1.263       .  A
C165        C863   1.466       .  S
O170        C173   1.264       .  A
O170       Cd175   2.486       .  S
C171        O180   1.263       .  A
C171        O176   1.267       .  A
O172        C178   1.265       .  A
O172       Cd175   2.459       .  S
C173        O181   1.264       .  A
C173        C831   1.471       .  S
C174        O179   1.264       .  A
C174        O177   1.262       .  A
C174        C860   1.465       .  S
Cd175       O182   2.454       .  S
Cd175       O181   2.470       .  S
Cd175       O180   2.471       .  S
Cd175       O176   2.481       .  S
Cd175       O179   2.476       .  S
Cd175       O177   2.457       .  S
C178        O182   1.265       .  A
C178        C895   1.465       .  S
O183        C186   1.264   1_556  A
O183       Cd188   2.468       .  S
C184        O193   1.264       .  A
C184        O189   1.264       .  A
C184        C225   1.471       .  S
O185        C191   1.264       .  A
O185       Cd188   2.467       .  S
C186        O194   1.265       .  A
C187        O192   1.265       .  A
C187        O190   1.265       .  A
C187        C943   1.473       .  S
Cd188       O195   2.481       .  S
Cd188       O194   2.516   1_556  S
Cd188       O193   2.504       .  S
Cd188       O189   2.477       .  S
Cd188       O192   2.488       .  S
Cd188       O190   2.477       .  S
C191        O195   1.265       .  A
C191        C815   1.469   1_565  S
O196        C199   1.264       .  A
O196       Cd201   2.484       .  S
C197        O206   1.264   1_455  A
C197        O202   1.265   1_554  A
O198        C204   1.265       .  A
O198       Cd201   2.477       .  S
C199        O207   1.264       .  A
C199        C210   1.474       .  S
C200        O205   1.265       .  A
C200        O203   1.265       .  A
C200        C956   1.474       .  S
Cd201       O208   2.473       .  S
Cd201       O207   2.505       .  S
Cd201       O206   2.508   1_556  S
Cd201       O202   2.470   1_655  S
Cd201       O205   2.487   1_655  S
Cd201       O203   2.481   1_655  S
C204        O208   1.264       .  A
C204        C812   1.470       .  S
O209        C212   1.266       .  A
O209       Cd214   2.536       .  S
C210        O219   1.262       .  A
C210        O215   1.267       .  A
O211        C217   1.266       .  A
O211       Cd214   2.454       .  S
C212        O220   1.261       .  A
C212        C780   1.478       .  S
C213        O218   1.266       .  A
C213        O216   1.264       .  A
C213        C799   1.464       .  S
Cd214       O221   2.491       .  S
Cd214       O220   2.461       .  S
Cd214       O219   2.471       .  S
Cd214       O215   2.509       .  S
Cd214       O218   2.477       .  S
Cd214       O216   2.431       .  S
C217        O221   1.267       .  A
C217       C1183   1.473       .  S
O222        C225   1.268       .  A
O222       Cd227   2.502       .  S
C223        O232   1.261       .  A
C223        O228   1.267       .  A
C223        C767   1.476       .  S
O224        C230   1.264   1_545  A
O224       Cd227   2.431   1_545  S
C225        O233   1.262       .  A
C226        O231   1.267       .  A
C226        O229   1.263       .  A
C226        C796   1.462       .  S
Cd227       O234   2.482       .  S
Cd227       O233   2.455       .  S
Cd227       O232   2.434       .  S
Cd227       O228   2.540       .  S
Cd227       O231   2.485   1_565  S
Cd227       O229   2.415   1_565  S
C230        O234   1.267       .  A
C230        C991   1.465       .  S
O235        C238   1.270       .  A
O235       Cd240   2.518       .  S
C236        O245   1.263       .  A
C236        O241   1.271       .  A
C236       C1167   1.478       .  S
O237        C243   1.267       .  A
O237       Cd240   2.476       .  S
C238        O246   1.263       .  A
C238        C277   1.473       .  S
C239        O244   1.266       .  A
C239        O242   1.268       .  A
C239        C735   1.469       .  S
Cd240       O247   2.420       .  S
Cd240       O246   2.441       .  S
Cd240       O245   2.417       .  S
Cd240       O241   2.543       .  S
Cd240       O244   2.459       .  S
Cd240       O242   2.461       .  S
C243        O247   1.264       .  A
C243        C748   1.463       .  S
O248        C251   1.262       .  A
O248       Cd253   2.452       .  S
C249        O258   1.260       .  A
C249        O254   1.267       .  A
C249        C316   1.470       .  S
O250        C256   1.266       .  A
O250       Cd253   2.468       .  S
C251        O259   1.266       .  A
C251       C1199   1.475       .  S
C252        O257   1.264       .  A
C252        O255   1.267       .  A
C252        C716   1.464       .  S
Cd253       O260   2.428       .  S
Cd253       O259   2.523       .  S
Cd253       O258   2.452       .  S
Cd253       O254   2.517       .  S
Cd253       O257   2.443       .  S
Cd253       O255   2.468       .  S
C256        O260   1.265       .  A
C256        C751   1.461       .  S
O261        C264   1.265       .  A
O261       Cd266   2.482       .  S
C262        O271   1.264       .  A
C262        O267   1.265       .  A
C262        C418   1.472       .  S
O263        C269   1.264       .  A
O263       Cd266   2.478       .  S
C264        O272   1.264       .  A
C264        C288   1.472       .  S
C265        O270   1.265       .  A
C265        O268   1.265       .  A
C265        C684   1.468       .  S
Cd266       O273   2.469       .  S
Cd266       O272   2.497       .  S
Cd266       O271   2.501       .  S
Cd266       O267   2.471       .  S
Cd266       O270   2.470       .  S
Cd266       O268   2.470       .  S
C269        O273   1.265       .  A
C269        C700   1.471   1_565  S
O274        C277   1.264       .  A
O274       Cd279   2.461       .  S
C275        O284   1.264       .  A
C275        O280   1.264       .  A
C275        C303   1.470       .  S
O276        C282   1.265       .  A
O276       Cd279   2.485       .  S
C277        O285   1.265       .  A
C278        O283   1.265       .  A
C278        O281   1.265       .  A
C278        C687   1.469       .  S
Cd279       O286   2.467       .  S
Cd279       O285   2.516       .  S
Cd279       O284   2.497       .  S
Cd279       O280   2.472       .  S
Cd279       O283   2.483   1_655  S
Cd279       O281   2.460   1_655  S
C282        O286   1.265       .  A
C282        C668   1.471       .  S
O287        C290   1.263       .  A
O287       Cd292   2.482       .  S
C288        O297   1.263       .  A
C288        O293   1.267       .  A
O289        C295   1.266       .  A
O289       Cd292   2.499       .  S
C290        O298   1.263       .  A
C290       C1071   1.475       .  S
C291        O296   1.265       .  A
C291        O294   1.267       .  A
C291        C636   1.467       .  S
Cd292       O299   2.440       .  S
Cd292       O298   2.506       .  S
Cd292       O297   2.462       .  S
Cd292       O293   2.497       .  S
Cd292       O296   2.443       .  S
Cd292       O294   2.473       .  S
C295        O299   1.263       .  A
C295        C652   1.469       .  S
O300        C303   1.267       .  A
O300       Cd305   2.498   1_655  S
C301        O310   1.264   1_455  A
C301        O306   1.261       .  A
C301       C1039   1.474   1_455  S
O302        C308   1.267       .  A
O302       Cd305   2.494       .  S
C303        O311   1.262   1_655  A
C304        O309   1.264       .  A
C304        O307   1.267   1_455  A
C304        C623   1.468       .  S
Cd305       O312   2.444       .  S
Cd305       O311   2.453       .  S
Cd305       O310   2.518   1_455  S
Cd305       O306   2.458       .  S
Cd305       O309   2.435       .  S
Cd305       O307   2.498   1_455  S
C308        O312   1.263       .  A
C308        C655   1.468       .  S
O313        C316   1.264       .  A
O313       Cd318   2.464       .  S
C314        O323   1.265       .  A
C314        O319   1.266       .  A
C314        C392   1.471       .  S
O315        C321   1.267       .  A
O315       Cd318   2.494       .  S
C316        O324   1.264       .  A
C317        O322   1.267       .  A
C317        O320   1.264       .  A
C317        C671   1.472       .  S
Cd318       O325   2.456       .  S
Cd318       O324   2.504       .  S
Cd318       O323   2.485       .  S
Cd318       O319   2.474       .  S
Cd318       O322   2.490       .  S
Cd318       O320   2.467       .  S
C321        O325   1.264       .  A
C321        C604   1.472       .  S
O326        C329   1.263       .  A
O326       Cd331   2.466       .  S
C327        O336   1.265   1_455  A
C327        O332   1.264       .  A
C327        C444   1.471       .  S
O328        C334   1.265       .  A
O328       Cd331   2.500   1_455  S
C329        O337   1.264       .  A
C329        C342   1.471       .  S
C330        O335   1.265       .  A
C330        O333   1.265       .  A
C330        C588   1.473       .  S
Cd331       O338   2.478   1_655  S
Cd331       O337   2.509       .  S
Cd331       O336   2.509       .  S
Cd331       O332   2.460   1_655  S
Cd331       O335   2.479       .  S
Cd331       O333   2.482       .  S
C334        O338   1.265       .  A
C334        C575   1.476       .  S
O339        C342   1.266       .  A
O339       Cd344   2.516       .  S
C340        O349   1.261       .  A
C340        O345   1.267       .  A
C340        C783   1.475       .  S
O341        C347   1.264       .  A
O341       Cd344   2.460       .  S
C342        O350   1.261       .  A
C343        O348   1.266       .  A
C343        O346   1.264       .  A
C343        C559   1.461       .  S
Cd344       O351   2.466       .  S
Cd344       O350   2.456       .  S
Cd344       O349   2.459       .  S
Cd344       O345   2.525       .  S
Cd344       O348   2.462       .  S
Cd344       O346   2.428       .  S
C347        O351   1.267       .  A
C347        C732   1.468       .  S
O352        C355   1.267       .  A
O352       Cd357   2.549       .  S
C353        O362   1.263       .  A
C353        O358   1.268       .  A
C353        C366   1.473       .  S
O354        C360   1.264   1_545  A
O354       Cd357   2.475   1_545  S
C355        O363   1.260       .  A
C355        C764   1.473       .  S
C356        O361   1.267       .  A
C356        O359   1.265       .  A
C356        C556   1.464       .  S
Cd357       O364   2.460       .  S
Cd357       O363   2.427       .  S
Cd357       O362   2.459       .  S
Cd357       O358   2.510       .  S
Cd357       O361   2.465   1_565  S
Cd357       O359   2.437   1_565  S
C360        O364   1.267       .  A
C360        C540   1.469       .  S
O365        C368   1.265       .  A
O365       Cd370   2.481       .  S
C366        O375   1.264       .  A
C366        O371   1.263       .  A
O367        C373   1.265       .  A
O367       Cd370   2.480       .  S
C368        O376   1.265       .  A
C368        C381   1.475       .  S
C369        O374   1.265       .  A
C369        O372   1.265       .  A
C369        C591   1.476   1_565  S
Cd370       O377   2.495       .  S
Cd370       O376   2.501       .  S
Cd370       O375   2.510       .  S
Cd370       O371   2.477       .  S
Cd370       O374   2.493       .  S
Cd370       O372   2.488       .  S
C373        O377   1.265       .  A
C373        C607   1.475       .  S
O378        C381   1.268       .  A
O378       Cd383   2.508       .  S
C379        O388   1.261       .  A
C379        O384   1.265       .  A
C379        C847   1.475       .  S
O380        C386   1.268       .  A
O380       Cd383   2.487       .  S
C381        O389   1.263       .  A
C382        O387   1.267       .  A
C382        O385   1.266       .  A
C382        C639   1.470       .  S
Cd383       O390   2.411       .  S
Cd383       O389   2.470       .  S
Cd383       O388   2.469       .  S
Cd383       O384   2.519       .  S
Cd383       O387   2.482       .  S
Cd383       O385   2.453       .  S
C386        O390   1.263       .  A
C386        C524   1.464       .  S
O391        C394   1.263       .  A
O391       Cd396   2.501       .  S
C392        O401   1.264       .  A
C392        O397   1.267       .  A
O393        C399   1.266       .  A
O393       Cd396   2.498       .  S
C394        O402   1.263       .  A
C394        C828   1.473       .  S
C395        O400   1.265       .  A
C395        O398   1.266       .  A
C395        C508   1.467       .  S
Cd396       O403   2.442       .  S
Cd396       O402   2.475       .  S
Cd396       O401   2.469       .  S
Cd396       O397   2.495       .  S
Cd396       O400   2.450       .  S
Cd396       O398   2.471       .  S
C399        O403   1.263       .  A
C399        C527   1.467       .  S
O404        C407   1.262       .  A
O404       Cd409   2.465       .  S
C405        O414   1.263       .  A
C405        O410   1.267       .  A
C405        C431   1.466       .  S
O406        C412   1.265       .  A
O406       Cd409   2.449       .  S
C407        O415   1.264       .  A
C407       C1007   1.472       .  S
C408        O413   1.266       .  A
C408        O411   1.264       .  A
C408        C495   1.464       .  S
Cd409       O416   2.465       .  S
Cd409       O415   2.502       .  S
Cd409       O414   2.455       .  S
Cd409       O410   2.484       .  S
Cd409       O413   2.476       .  S
Cd409       O411   2.430       .  S
C412        O416   1.265       .  A
C412        C719   1.465       .  S
O417        C420   1.265       .  A
O417       Cd422   2.508       .  S
C418        O427   1.263       .  A
C418        O423   1.268       .  A
O419        C425   1.266       .  A
O419       Cd422   2.476   1_545  S
C420        O428   1.261       .  A
C420        C975   1.471       .  S
C421        O426   1.265   1_565  A
C421        O424   1.266       .  A
C421        C543   1.467       .  S
Cd422       O429   2.417   1_565  S
Cd422       O428   2.462       .  S
Cd422       O427   2.458       .  S
Cd422       O423   2.512       .  S
Cd422       O426   2.466   1_565  S
Cd422       O424   2.456       .  S
C425        O429   1.263       .  A
C425        C492   1.459       .  S
O430        C433   1.264       .  A
O430       Cd435   2.475       .  S
C431        O440   1.264       .  A
C431        O436   1.265       .  A
O432        C438   1.265       .  A
O432       Cd435   2.504       .  S
C433        O441   1.264       .  A
C433        C457   1.470       .  S
C434        O439   1.265       .  A
C434        O437   1.264       .  A
C434        C703   1.472       .  S
Cd435       O442   2.472       .  S
Cd435       O441   2.491       .  S
Cd435       O440   2.479       .  S
Cd435       O436   2.469       .  S
Cd435       O439   2.479       .  S
Cd435       O437   2.478       .  S
C438        O442   1.265       .  A
C438        C572   1.476       .  S
O443        C446   1.271       .  A
O443       Cd448   2.533       .  S
C444        O453   1.264       .  A
C444        O449   1.270       .  A
O445        C451   1.268       .  A
O445       Cd448   2.487       .  S
C446        O454   1.262       .  A
C446        C908   1.472       .  S
C447        O452   1.267       .  A
C447        O450   1.266       .  A
C447        C620   1.468       .  S
Cd448       O455   2.423       .  S
Cd448       O454   2.407       .  S
Cd448       O453   2.436       .  S
Cd448       O449   2.504       .  S
Cd448       O452   2.451       .  S
Cd448       O450   2.468       .  S
C451        O455   1.264       .  A
C451        C476   1.465       .  S
O456        C459   1.265       .  A
O456       Cd461   2.524       .  S
C457        O466   1.261       .  A
C457        O462   1.265       .  A
O458        C464   1.266       .  A
O458       Cd461   2.460       .  S
C459        O467   1.261       .  A
C459        C876   1.474       .  S
C460        O465   1.266       .  A
C460        O463   1.264       .  A
C460        C479   1.467       .  S
Cd461       O468   2.463       .  S
Cd461       O467   2.452       .  S
Cd461       O466   2.470       .  S
Cd461       O462   2.502       .  S
Cd461       O465   2.475       .  S
Cd461       O463   2.450       .  S
C464        O468   1.267       .  A
C464        C511   1.468       .  S
C469        C474   1.381       .  A
C469        C470   1.400       .  A
C469        O475   1.315       .  A
C470        C471   1.399       .  A
C470        H481   1.082       .  S
C471        C480   1.359       .  A
C471        C472   1.381       .  A
C472        C473   1.405       .  A
C472        O478   1.320       .  A
C473        C474   1.404       .  A
C473        H482   1.082       .  S
C474        C477   1.365       .  A
O475        C476   1.329       .  A
C476        C477   1.392       .  A
C477        H483   1.082       .  S
O478        C479   1.331       .  A
C479        C480   1.390       .  A
C480        H484   1.083       .  S
C485        C490   1.381       .  A
C485        C486   1.397       .  A
C485        O491   1.312       .  A
C486        C487   1.396       .  A
C486        H497   1.082       .  S
C487        C496   1.355       .  A
C487        C488   1.381       .  A
C488        C489   1.405       .  A
C488        O494   1.320       .  A
C489        C490   1.404       .  A
C489        H498   1.082       .  S
C490        C493   1.365       .  A
O491        C492   1.326       .  A
C492        C493   1.392       .  A
C493        H499   1.082       .  S
O494        C495   1.331       .  A
C495        C496   1.388       .  A
C496        H500   1.083       .  S
C501        C506   1.381       .  A
C501        C502   1.402       .  A
C501        O507   1.317       .  A
C502        C503   1.401       .  A
C502        H513   1.082       .  S
C503        C512   1.361       .  A
C503        C504   1.381       .  A
C504        C505   1.404       .  A
C504        O510   1.319       .  A
C505        C506   1.403       .  A
C505        H514   1.082       .  S
C506        C509   1.363       .  A
O507        C508   1.329       .  A
C508        C509   1.391       .  A
C509        H515   1.083       .  S
O510        C511   1.330       .  A
C511        C512   1.391       .  A
C512        H516   1.083       .  S
C517        C522   1.381       .  A
C517        C518   1.406       .  A
C517        O523   1.321       .  A
C518        C519   1.406       .  A
C518        H529   1.082       .  S
C519        C528   1.366       .  A
C519        C520   1.381       .  A
C520        C521   1.398       .  A
C520        O526   1.314       .  A
C521        C522   1.397       .  A
C521        H530   1.082       .  S
C522        C525   1.354       .  A
O523        C524   1.331       .  A
C524        C525   1.388       .  A
C525        H531   1.083       .  S
O526        C527   1.328       .  A
C527        C528   1.393       .  A
C528        H532   1.082       .  S
C533        C538   1.380       .  A
C533        C534   1.407   1_565  A
C533        O539   1.321   1_565  A
C534        C535   1.406       .  A
C534        H545   1.082       .  S
C535        C544   1.365       .  A
C535        C536   1.381   1_545  A
C536        C537   1.399       .  A
C536        O542   1.316       .  A
C537        C538   1.399       .  A
C537        H546   1.082       .  S
C538        C541   1.358       .  A
O539        C540   1.333   1_545  A
C540        C541   1.388       .  A
C541        H547   1.083       .  S
O542        C543   1.328       .  A
C543        C544   1.393   1_565  A
C544        H548   1.082       .  S
C549        C554   1.381       .  A
C549        C550   1.403       .  A
C549        O555   1.318       .  A
C550        C551   1.402       .  A
C550        H561   1.082       .  S
C551        C560   1.362       .  A
C551        C552   1.381       .  A
C552        C553   1.399       .  A
C552        O558   1.314       .  A
C553        C554   1.398       .  A
C553        H562   1.083       .  S
C554        C557   1.357       .  A
O555        C556   1.330       .  A
C556        C557   1.389       .  A
C557        H563   1.083       .  S
O558        C559   1.328       .  A
C559        C560   1.390       .  A
C560        H564   1.082       .  S
C565        C570   1.380       .  A
C565        C566   1.409       .  A
C565        O571   1.324       .  A
C566        C567   1.408       .  A
C566        H577   1.082       .  S
C567        C576   1.368       .  A
C567        C568   1.380       .  A
C568        C569   1.402       .  A
C568        O574   1.319       .  A
C569        C570   1.402       .  A
C569        H578   1.082       .  S
C570        C573   1.361       .  A
O571        C572   1.334       .  A
C572        C573   1.390       .  A
C573        H579   1.082       .  S
O574        C575   1.330       .  A
C575        C576   1.395       .  A
C576        H580   1.082       .  S
C581        C586   1.380       .  A
C581        C582   1.405       .  A
C581        O587   1.321       .  A
C582        C583   1.405       .  A
C582        H593   1.082       .  S
C583        C592   1.364       .  A
C583        C584   1.380       .  A
C584        C585   1.405       .  A
C584        O590   1.321       .  A
C585        C586   1.404       .  A
C585        H594   1.082       .  S
C586        C589   1.363       .  A
O587        C588   1.332       .  A
C588        C589   1.392       .  A
C589        H595   1.082       .  S
O590        C591   1.332       .  A
C591        C592   1.393       .  A
C592        H596   1.082       .  S
C597        C602   1.381       .  A
C597        C598   1.404       .  A
C597        O603   1.321       .  A
C598        C599   1.404       .  A
C598        H609   1.082       .  S
C599        C608   1.362       .  A
C599        C600   1.380       .  A
C600        C601   1.405       .  A
C600        O606   1.322       .  A
C601        C602   1.405       .  A
C601        H610   1.082       .  S
C602        C605   1.362       .  A
O603        C604   1.331       .  A
C604        C605   1.392       .  A
C605        H611   1.082       .  S
O606        C607   1.332       .  A
C607        C608   1.392       .  A
C608        H612   1.082       .  S
C613        C618   1.380       .  A
C613        C614   1.407   1_455  A
C613        O619   1.321       .  A
C614        C615   1.406   1_655  A
C614        H625   1.082       .  S
C615        C624   1.367   1_455  A
C615        C616   1.381       .  A
C616        C617   1.399       .  A
C616        O622   1.314       .  A
C617        C618   1.398       .  A
C617        H626   1.082       .  S
C618        C621   1.358       .  A
O619        C620   1.332       .  A
C620        C621   1.389       .  A
C621        H627   1.083       .  S
O622        C623   1.328       .  A
C623        C624   1.394   1_455  A
C624        H628   1.082       .  S
C629        C634   1.381       .  A
C629        C630   1.403       .  A
C629        O635   1.320       .  A
C630        C631   1.403       .  A
C630        H641   1.082       .  S
C631        C640   1.360       .  A
C631        C632   1.381       .  A
C632        C633   1.403       .  A
C632        O638   1.320       .  A
C633        C634   1.403       .  A
C633        H642   1.082       .  S
C634        C637   1.360       .  A
O635        C636   1.330       .  A
C636        C637   1.390       .  A
C637        H643   1.082       .  S
O638        C639   1.331       .  A
C639        C640   1.391       .  A
C640        H644   1.082       .  S
C645        C650   1.381       .  A
C645        C646   1.406       .  A
C645        O651   1.322       .  A
C646        C647   1.406       .  A
C646        H657   1.082       .  S
C647        C656   1.366       .  A
C647        C648   1.381       .  A
C648        C649   1.400       .  A
C648        O654   1.316       .  A
C649        C650   1.399       .  A
C649        H658   1.083       .  S
C650        C653   1.357       .  A
O651        C652   1.332       .  A
C652        C653   1.389       .  A
C653        H659   1.083       .  S
O654        C655   1.329       .  A
C655        C656   1.392       .  A
C656        H660   1.082       .  S
C661        C666   1.380       .  A
C661        C662   1.405       .  A
C661        O667   1.321       .  A
C662        C663   1.405       .  A
C662        H673   1.082       .  S
C663        C672   1.365       .  A
C663        C664   1.380       .  A
C664        C665   1.403       .  A
C664        O670   1.319       .  A
C665        C666   1.402       .  A
C665        H674   1.082       .  S
C666        C669   1.361       .  A
O667        C668   1.332       .  A
C668        C669   1.391       .  A
C669        H675   1.082       .  S
O670        C671   1.331       .  A
C671        C672   1.392       .  A
C672        H676   1.082       .  S
C677        C682   1.381       .  A
C677        C678   1.402       .  A
C677        O683   1.318       .  A
C678        C679   1.401       .  A
C678        H689   1.082       .  S
C679        C688   1.360       .  A
C679        C680   1.381       .  A
C680        C681   1.404       .  A
C680        O686   1.320       .  A
C681        C682   1.404       .  A
C681        H690   1.082       .  S
C682        C685   1.362       .  A
O683        C684   1.330       .  A
C684        C685   1.391       .  A
C685        H691   1.082       .  S
O686        C687   1.332       .  A
C687        C688   1.390       .  A
C688        H692   1.083       .  S
C693        C698   1.380       .  A
C693        C694   1.405       .  A
C693        O699   1.320       .  A
C694        C695   1.404       .  A
C694        H705   1.082       .  S
C695        C704   1.363       .  A
C695        C696   1.381       .  A
C696        C697   1.403       .  A
C696        O702   1.320       .  A
C697        C698   1.403       .  A
C697        H706   1.082       .  S
C698        C701   1.361       .  A
O699        C700   1.332       .  A
C700        C701   1.390       .  A
C701        H707   1.082       .  S
O702        C703   1.331       .  A
C703        C704   1.392       .  A
C704        H708   1.082       .  S
C709        C714   1.381       .  A
C709        C710   1.401       .  A
C709        O715   1.316       .  A
C710        C711   1.400       .  A
C710        H721   1.083       .  S
C711        C720   1.359       .  A
C711        C712   1.381       .  A
C712        C713   1.403       .  A
C712        O718   1.319       .  A
C713        C714   1.402       .  A
C713        H722   1.082       .  S
C714        C717   1.362       .  A
O715        C716   1.329       .  A
C716        C717   1.390       .  A
C717        H723   1.082       .  S
O718        C719   1.330       .  A
C719        C720   1.389       .  A
C720        H724   1.083       .  S
C725        C730   1.380       .  A
C725        C726   1.406       .  A
C725        O731   1.320       .  A
C726        C727   1.405       .  A
C726        H737   1.082       .  S
C727        C736   1.364       .  A
C727        C728   1.381       .  A
C728        C729   1.401       .  A
C728        O734   1.317       .  A
C729        C730   1.400       .  A
C729        H738   1.082       .  S
C730        C733   1.360       .  A
O731        C732   1.332       .  A
C732        C733   1.389       .  A
C733        H739   1.082       .  S
O734        C735   1.329       .  A
C735        C736   1.393       .  A
C736        H740   1.082       .  S
C741        C746   1.381       .  A
C741        C742   1.405       .  A
C741        O747   1.320       .  A
C742        C743   1.405       .  A
C742        H753   1.082       .  S
C743        C752   1.364       .  A
C743        C744   1.381       .  A
C744        C745   1.397       .  A
C744        O750   1.313       .  A
C745        C746   1.396       .  A
C745        H754   1.082       .  S
C746        C749   1.354       .  A
O747        C748   1.331       .  A
C748        C749   1.387       .  A
C749        H755   1.083       .  S
O750        C751   1.327       .  A
C751        C752   1.392       .  A
C752        H756   1.082       .  S
C757        C762   1.380       .  A
C757        C758   1.398       .  A
C757        O763   1.313       .  A
C758        C759   1.396       .  A
C758        H769   1.082   1_565  S
C759        C768   1.355       .  A
C759        C760   1.380       .  A
C760        C761   1.412       .  A
C760        O766   1.327       .  A
C761        C762   1.412       .  A
C761        H770   1.082       .  S
C762        C765   1.374       .  A
O763        C764   1.327       .  A
C764        C765   1.397       .  A
C765        H771   1.082       .  S
O766        C767   1.335       .  A
C767        C768   1.389       .  A
C768        H772   1.083   1_565  S
C773        C778   1.380       .  A
C773        C774   1.409       .  A
C773        O779   1.325       .  A
C774        C775   1.409       .  A
C774        H785   1.082   1_655  S
C775        C784   1.369       .  A
C775        C776   1.380       .  A
C776        C777   1.402       .  A
C776        O782   1.318       .  A
C777        C778   1.402       .  A
C777        H786   1.083       .  S
C778        C781   1.360       .  A
O779        C780   1.334       .  A
C780        C781   1.391       .  A
C781        H787   1.083       .  S
O782        C783   1.331       .  A
C783        C784   1.394       .  A
C784        H788   1.082   1_655  S
C789        C794   1.381       .  A
C789        C790   1.398       .  A
C789        O795   1.313       .  A
C790        C791   1.397       .  A
C790        H801   1.083       .  S
C791        C800   1.356       .  A
C791        C792   1.381       .  A
C792        C793   1.405       .  A
C792        O798   1.320       .  A
C793        C794   1.404       .  A
C793        H802   1.082       .  S
C794        C797   1.365       .  A
O795        C796   1.327       .  A
C796        C797   1.392       .  A
C797        H803   1.082       .  S
O798        C799   1.331       .  A
C799        C800   1.388       .  A
C800        H804   1.083       .  S
C805        C810   1.380       .  A
C805        C806   1.404       .  A
C805        O811   1.319       .  A
C806        C807   1.403       .  A
C806        H817   1.082       .  S
C807        C816   1.363       .  A
C807        C808   1.380       .  A
C808        C809   1.403       .  A
C808        O814   1.318       .  A
C809        C810   1.402       .  A
C809        H818   1.082       .  S
C810        C813   1.362       .  A
O811        C812   1.331       .  A
C812        C813   1.391       .  A
C813        H819   1.083       .  S
O814        C815   1.330       .  A
C815        C816   1.391       .  A
C816        H820   1.083       .  S
C821        C826   1.380       .  A
C821        C822   1.407       .  A
C821        O827   1.322       .  A
C822        C823   1.406       .  A
C822        H833   1.082       .  S
C823        C832   1.366       .  A
C823        C824   1.381       .  A
C824        C825   1.402       .  A
C824        O830   1.318       .  A
C825        C826   1.401       .  A
C825        H834   1.083       .  S
C826        C829   1.360       .  A
O827        C828   1.333       .  A
C828        C829   1.390       .  A
C829        H835   1.083       .  S
O830        C831   1.330       .  A
C831        C832   1.394       .  A
C832        H836   1.082       .  S
C837        C842   1.380       .  A
C837        C838   1.407       .  A
C837        O843   1.322       .  A
C838        C839   1.407       .  A
C838        H849   1.082       .  S
C839        C848   1.367       .  A
C839        C840   1.380       .  A
C840        C841   1.404       .  A
C840        O846   1.319       .  A
C841        C842   1.403       .  A
C841        H850   1.082       .  S
C842        C845   1.362       .  A
O843        C844   1.333       .  A
C844        C845   1.391       .  A
C845        H851   1.082       .  S
O846        C847   1.331       .  A
C847        C848   1.393       .  A
C848        H852   1.082       .  S
C853        C858   1.381       .  A
C853        C854   1.401       .  A
C853        O859   1.317       .  A
C854        C855   1.401       .  A
C854        H865   1.082       .  S
C855        C864   1.359       .  A
C855        C856   1.381       .  A
C856        C857   1.403       .  A
C856        O862   1.319       .  A
C857        C858   1.402       .  A
C857        H866   1.082       .  S
C858        C861   1.362       .  A
O859        C860   1.330       .  A
C860        C861   1.390       .  A
C861        H867   1.082       .  S
O862        C863   1.330       .  A
C863        C864   1.390       .  A
C864        H868   1.083       .  S
C869        C874   1.380       .  A
C869        C870   1.407       .  A
C869        O875   1.324       .  A
C870        C871   1.407       .  A
C870        H881   1.082       .  S
C871        C880   1.366       .  A
C871        C872   1.381       .  A
C872        C873   1.402       .  A
C872        O878   1.318       .  A
C873        C874   1.401       .  A
C873        H882   1.083       .  S
C874        C877   1.359       .  A
O875        C876   1.333       .  A
C876        C877   1.390       .  A
C877        H883   1.083       .  S
O878        C879   1.330       .  A
C879        C880   1.392       .  A
C880        H884   1.082       .  S
C885        C890   1.381       .  A
C885        C886   1.402       .  A
C885        O891   1.318       .  A
C886        C887   1.401       .  A
C886        H897   1.082       .  S
C887        C896   1.360       .  A
C887        C888   1.381       .  A
C888        C889   1.402       .  A
C888        O894   1.318       .  A
C889        C890   1.402       .  A
C889        H898   1.082       .  S
C890        C893   1.361       .  A
O891        C892   1.330       .  A
C892        C893   1.391       .  A
C893        H899   1.083       .  S
O894        C895   1.330       .  A
C895        C896   1.390       .  A
C896        H900   1.083       .  S
C901        C906   1.380       .  A
C901        C902   1.397       .  A
C901        O907   1.313       .  A
C902        C903   1.396       .  A
C902        H913   1.082       .  S
C903        C912   1.354       .  A
C903        C904   1.380       .  A
C904        C905   1.413       .  A
C904        O910   1.328       .  A
C905        C906   1.412       .  A
C905        H914   1.082   1_455  S
C906        C909   1.374       .  A
O907        C908   1.328       .  A
C908        C909   1.396       .  A
C909        H915   1.082   1_455  S
O910        C911   1.336       .  A
C911        C912   1.389       .  A
C912        H916   1.083       .  S
C917        C922   1.381       .  A
C917        C918   1.404       .  A
C917        O923   1.320       .  A
C918        C919   1.403       .  A
C918        H929   1.082       .  S
C919        C928   1.362       .  A
C919        C920   1.381       .  A
C920        C921   1.401       .  A
C920        O926   1.316       .  A
C921        C922   1.400       .  A
C921        H930   1.082       .  S
C922        C925   1.359       .  A
O923        C924   1.331       .  A
C924        C925   1.390       .  A
C925        H931   1.083       .  S
O926        C927   1.329       .  A
C927        C928   1.390       .  A
C928        H932   1.082       .  S
C933        C938   1.380       .  A
C933        C934   1.407       .  A
C933        O939   1.322       .  A
C934        C935   1.406       .  A
C934        H945   1.082       .  S
C935        C944   1.366       .  A
C935        C936   1.380       .  A
C936        C937   1.403       .  A
C936        O942   1.319       .  A
C937        C938   1.402       .  A
C937        H946   1.082       .  S
C938        C941   1.361       .  A
O939        C940   1.333       .  A
C940        C941   1.391       .  A
C941        H947   1.082       .  S
O942        C943   1.330       .  A
C943        C944   1.394       .  A
C944        H948   1.082       .  S
C949        C954   1.380       .  A
C949        C950   1.404       .  A
C949        O955   1.320       .  A
C950        C951   1.403       .  A
C950        H961   1.082       .  S
C951        C960   1.361       .  A
C951        C952   1.380       .  A
C952        C953   1.405       .  A
C952        O958   1.321       .  A
C953        C954   1.405       .  A
C953        H962   1.082       .  S
C954        C957   1.364       .  A
O955        C956   1.331       .  A
C956        C957   1.393       .  A
C957        H963   1.082       .  S
O958        C959   1.332       .  A
C959        C960   1.391       .  A
C960        H964   1.082       .  S
C965        C970   1.380       .  A
C965        C966   1.407       .  A
C965        O971   1.323       .  A
C966        C967   1.407       .  A
C966        H977   1.082       .  S
C967        C976   1.366       .  A
C967        C968   1.381       .  A
C968        C969   1.401       .  A
C968        O974   1.318       .  A
C969        C970   1.401       .  A
C969        H978   1.082       .  S
C970        C973   1.359       .  A
O971        C972   1.333       .  A
C972        C973   1.390       .  A
C973        H979   1.083       .  S
O974        C975   1.330       .  A
C975        C976   1.393       .  A
C976        H980   1.082       .  S
C981        C986   1.381       .  A
C981        C982   1.405       .  A
C981        O987   1.319       .  A
C982        C983   1.404       .  A
C982        H993   1.082       .  S
C983        C992   1.365       .  A
C983        C984   1.381       .  A
C984        C985   1.400   1_565  A
C984        O990   1.314   1_565  A
C985        C986   1.398   1_545  A
C985        H994   1.082       .  S
C986        C989   1.358   1_565  A
O987        C988   1.331       .  A
C988        C989   1.388   1_565  A
C989        H995   1.082       .  S
O990        C991   1.328   1_545  A
C991        C992   1.392       .  A
C992        H996   1.082       .  S
C997       C1002   1.381       .  A
C997        C998   1.403       .  A
C997       O1003   1.319       .  A
C998        C999   1.402       .  A
C998       H1009   1.082       .  S
C999       C1008   1.361       .  A
C999       C1000   1.380       .  A
C1000      C1001   1.406       .  A
C1000      O1006   1.322       .  A
C1001      C1002   1.406       .  A
C1001      H1010   1.082       .  S
C1002      C1005   1.365       .  A
O1003      C1004   1.331       .  A
C1004      C1005   1.393       .  A
C1005      H1011   1.082       .  S
O1006      C1007   1.332       .  A
C1007      C1008   1.391       .  A
C1008      H1012   1.083       .  S
C1013      C1018   1.381       .  A
C1013      C1014   1.406       .  A
C1013      O1019   1.321       .  A
C1014      C1015   1.405       .  A
C1014      H1025   1.082       .  S
C1015      C1024   1.365       .  A
C1015      C1016   1.381       .  A
C1016      C1017   1.397       .  A
C1016      O1022   1.313       .  A
C1017      C1018   1.397       .  A
C1017      H1026   1.082       .  S
C1018      C1021   1.354       .  A
O1019      C1020   1.331       .  A
C1020      C1021   1.388       .  A
C1021      H1027   1.083       .  S
O1022      C1023   1.327       .  A
C1023      C1024   1.392       .  A
C1024      H1028   1.082       .  S
C1029      C1034   1.380   1_455  A
C1029      C1030   1.402       .  A
C1029      O1035   1.318       .  A
C1030      C1031   1.401       .  A
C1030      H1041   1.083       .  S
C1031      C1040   1.359       .  A
C1031      C1032   1.380   1_455  A
C1032      C1033   1.408       .  A
C1032      O1038   1.323       .  A
C1033      C1034   1.407       .  A
C1033      H1042   1.082       .  S
C1034      C1037   1.367       .  A
O1035      C1036   1.330   1_455  A
C1036      C1037   1.394       .  A
C1037      H1043   1.082       .  S
O1038      C1039   1.333       .  A
C1039      C1040   1.390   1_655  A
C1040      H1044   1.083       .  S
C1045      C1050   1.380       .  A
C1045      C1046   1.404       .  A
C1045      O1051   1.319       .  A
C1046      C1047   1.403       .  A
C1046      H1057   1.082       .  S
C1047      C1056   1.362       .  A
C1047      C1048   1.380       .  A
C1048      C1049   1.406       .  A
C1048      O1054   1.322       .  A
C1049      C1050   1.405       .  A
C1049      H1058   1.082   1_455  S
C1050      C1053   1.365       .  A
O1051      C1052   1.331       .  A
C1052      C1053   1.393       .  A
C1053      H1059   1.082   1_455  S
O1054      C1055   1.332       .  A
C1055      C1056   1.391       .  A
C1056      H1060   1.082       .  S
C1061      C1066   1.380       .  A
C1061      C1062   1.403       .  A
C1061      O1067   1.319       .  A
C1062      C1063   1.402       .  A
C1062      H1073   1.082       .  S
C1063      C1072   1.361       .  A
C1063      C1064   1.380       .  A
C1064      C1065   1.408       .  A
C1064      O1070   1.323       .  A
C1065      C1066   1.407       .  A
C1065      H1074   1.082       .  S
C1066      C1069   1.367       .  A
O1067      C1068   1.330       .  A
C1068      C1069   1.394       .  A
C1069      H1075   1.082       .  S
O1070      C1071   1.334       .  A
C1071      C1072   1.391       .  A
C1072      H1076   1.083       .  S
C1077      C1082   1.381       .  A
C1077      C1078   1.402       .  A
C1077      O1083   1.319       .  A
C1078      C1079   1.402       .  A
C1078      H1089   1.082       .  S
C1079      C1088   1.360       .  A
C1079      C1080   1.381       .  A
C1080      C1081   1.404       .  A
C1080      O1086   1.320       .  A
C1081      C1082   1.404       .  A
C1081      H1090   1.082       .  S
C1082      C1085   1.362       .  A
O1083      C1084   1.330       .  A
C1084      C1085   1.391       .  A
C1085      H1091   1.082       .  S
O1086      C1087   1.331       .  A
C1087      C1088   1.390       .  A
C1088      H1092   1.082       .  S
C1093      C1098   1.381       .  A
C1093      C1094   1.401       .  A
C1093      O1099   1.316       .  A
C1094      C1095   1.400       .  A
C1094      H1105   1.083       .  S
C1095      C1104   1.358       .  A
C1095      C1096   1.381       .  A
C1096      C1097   1.403       .  A
C1096      O1102   1.319       .  A
C1097      C1098   1.402       .  A
C1097      H1106   1.082       .  S
C1098      C1101   1.362       .  A
O1099      C1100   1.329       .  A
C1100      C1101   1.390       .  A
C1101      H1107   1.082       .  S
O1102      C1103   1.330       .  A
C1103      C1104   1.390       .  A
C1104      H1108   1.083       .  S
C1109      C1114   1.381       .  A
C1109      C1110   1.403       .  A
C1109      O1115   1.319       .  A
C1110      C1111   1.402       .  A
C1110      H1121   1.082       .  S
C1111      C1120   1.361       .  A
C1111      C1112   1.380       .  A
C1112      C1113   1.406       .  A
C1112      O1118   1.321       .  A
C1113      C1114   1.406       .  A
C1113      H1122   1.082   1_556  S
C1114      C1117   1.365       .  A
O1115      C1116   1.331       .  A
C1116      C1117   1.393       .  A
C1117      H1123   1.082   1_556  S
O1118      C1119   1.332       .  A
C1119      C1120   1.390       .  A
C1120      H1124   1.082       .  S
C1125      C1130   1.381       .  A
C1125      C1126   1.403       .  A
C1125      O1131   1.319       .  A
C1126      C1127   1.402       .  A
C1126      H1137   1.082       .  S
C1127      C1136   1.361       .  A
C1127      C1128   1.380       .  A
C1128      C1129   1.405       .  A
C1128      O1134   1.320       .  A
C1129      C1130   1.405       .  A
C1129      H1138   1.082       .  S
C1130      C1133   1.364       .  A
O1131      C1132   1.331       .  A
C1132      C1133   1.392       .  A
C1133      H1139   1.082       .  S
O1134      C1135   1.332       .  A
C1135      C1136   1.390       .  A
C1136      H1140   1.083       .  S
C1141      C1146   1.381       .  A
C1141      C1142   1.403       .  A
C1141      O1147   1.318       .  A
C1142      C1143   1.403       .  A
C1142      H1153   1.082       .  S
C1143      C1152   1.363       .  A
C1143      C1144   1.381       .  A
C1144      C1145   1.402       .  A
C1144      O1150   1.318       .  A
C1145      C1146   1.401       .  A
C1145      H1154   1.082       .  S
C1146      C1149   1.361       .  A
O1147      C1148   1.330       .  A
C1148      C1149   1.390       .  A
C1149      H1155   1.082       .  S
O1150      C1151   1.330       .  A
C1151      C1152   1.391       .  A
C1152      H1156   1.082       .  S
C1157      C1162   1.380       .  A
C1157      C1158   1.399       .  A
C1157      O1163   1.315       .  A
C1158      C1159   1.398       .  A
C1158      H1169   1.082       .  S
C1159      C1168   1.355       .  A
C1159      C1160   1.380       .  A
C1160      C1161   1.413       .  A
C1160      O1166   1.328       .  A
C1161      C1162   1.413       .  A
C1161      H1170   1.082       .  S
C1162      C1165   1.374       .  A
O1163      C1164   1.329       .  A
C1164      C1165   1.397       .  A
C1165      H1171   1.082       .  S
O1166      C1167   1.336       .  A
C1167      C1168   1.389       .  A
C1168      H1172   1.083       .  S
C1173      C1178   1.381       .  A
C1173      C1174   1.402       .  A
C1173      O1179   1.319       .  A
C1174      C1175   1.402       .  A
C1174      H1185   1.082       .  S
C1175      C1184   1.360       .  A
C1175      C1176   1.380       .  A
C1176      C1177   1.406       .  A
C1176      O1182   1.322       .  A
C1177      C1178   1.406       .  A
C1177      H1186   1.082       .  S
C1178      C1181   1.365       .  A
O1179      C1180   1.330       .  A
C1180      C1181   1.393       .  A
C1181      H1187   1.082       .  S
O1182      C1183   1.333       .  A
C1183      C1184   1.390       .  A
C1184      H1188   1.082       .  S
C1189      C1194   1.380       .  A
C1189      C1190   1.400       .  A
C1189      O1195   1.316       .  A
C1190      C1191   1.399       .  A
C1190      H1201   1.082       .  S
C1191      C1200   1.358       .  A
C1191      C1192   1.380       .  A
C1192      C1193   1.410       .  A
C1192      O1198   1.325       .  A
C1193      C1194   1.410       .  A
C1193      H1202   1.082       .  S
C1194      C1197   1.371       .  A
O1195      C1196   1.329       .  A
C1196      C1197   1.395       .  A
C1197      H1203   1.082       .  S
O1198      C1199   1.334       .  A
C1199      C1200   1.390       .  A
C1200      H1204   1.083       .  S
C1205      C1210   1.381       .  A
C1205      C1206   1.401       .  A
C1205      O1211   1.319       .  A
C1206      C1207   1.401       .  A
C1206      H1217   1.083       .  S
C1207      C1216   1.358       .  A
C1207      C1208   1.381       .  A
C1208      C1209   1.405       .  A
C1208      O1214   1.322       .  A
C1209      C1210   1.405       .  A
C1209      H1218   1.082       .  S
C1210      C1213   1.362       .  A
O1211      C1212   1.330       .  A
C1212      C1213   1.391       .  A
C1213      H1219   1.082       .  S
O1214      C1215   1.332       .  A
C1215      C1216   1.390       .  A
C1216      H1220   1.083       .  S
C1221      C1226   1.381       .  A
C1221      C1222   1.405       .  A
C1221      O1227   1.322       .  A
C1222      C1223   1.405       .  A
C1222      H1233   1.082       .  S
C1223      C1232   1.363       .  A
C1223      C1224   1.381       .  A
C1224      C1225   1.400       .  A
C1224      O1230   1.317       .  A
C1225      C1226   1.399       .  A
C1225      H1234   1.082       .  S
C1226      C1229   1.356       .  A
O1227      C1228   1.332       .  A
C1228      C1229   1.389       .  A
C1229      H1235   1.082       .  S
O1230      C1231   1.329       .  A
C1231      C1232   1.391       .  A
C1232      H1236   1.082       .  S
