geometry optimzed in LAMMPS
_audit_creation_date              2020-11-30 
_audit_creation_method            'lammps2cif' 
_symmetry_space_group_name_H-M    'P1' 
_symmetry_Int_Tables_number       1 
_symmetry_cell_setting            triclinic 
loop_ 
_symmetry_equiv_pos_as_xyz 
  x,y,z 
_cell_length_a                    79.19460729 
_cell_length_b                    79.74278648892854 
_cell_length_c                    80.85825998936335 
_cell_angle_alpha                 89.95793454415856 
_cell_angle_beta                  89.85561823495566 
_cell_angle_gamma                 89.84561129005154 
loop_ 
_atom_site_label 
_atom_site_type_symbol 
_atom_site_fract_x 
_atom_site_fract_y 
_atom_site_fract_z 
_atom_site_charge 
C1          C  0.15936235  0.17473837  0.48972582     0.02900
C2          C  0.17175260  0.16174616  0.49045879     0.02900
C3          C  0.17594691  0.15518782  0.50622169    -0.17700
C4          C  0.16901866  0.16155450  0.52111402     0.02900
C5          C  0.15590188  0.17384945  0.52020342     0.02900
C6          C  0.15136109  0.17985948  0.50441346    -0.17700
H7          H  0.14161526  0.18937358  0.50338659     0.04900
H8          H  0.18585953  0.14582189  0.50705272     0.04900
C9          C  0.15374712  0.48360759  0.17278362     0.02900
C10         C  0.16593145  0.48424772  0.15978497     0.02900
C11         C  0.17045994  0.50012300  0.15344280    -0.17700
C12         C  0.16370335  0.51545314  0.15937956     0.02900
C13         C  0.15150887  0.51481043  0.17249592     0.02900
C14         C  0.14680729  0.49885096  0.17865959    -0.17700
H15         H  0.13762371  0.49827431  0.18861153     0.04900
H16         H  0.17976762  0.50053750  0.14360102     0.04900
C17         C  0.48118025  0.15906140  0.17136242     0.02900
C18         C  0.48113552  0.17114736  0.15828932     0.02900
C19         C  0.49703487  0.17654127  0.15213663    -0.17700
C20         C  0.51271116  0.17110249  0.15872055     0.02900
C21         C  0.51261984  0.15864345  0.17141888     0.02900
C22         C  0.49677357  0.15285051  0.17709304    -0.17700
H23         H  0.49633614  0.14309160  0.18637697     0.04900
H24         H  0.49726193  0.18600275  0.14251595     0.04900
C25         C  0.16125364  0.84580545  0.48778271     0.02900
C26         C  0.14819569  0.83354246  0.48722477     0.02900
C27         C  0.14058879  0.82835328  0.50222071    -0.17700
C28         C  0.14581496  0.83405271  0.51801832     0.02900
C29         C  0.15915138  0.84617215  0.51862288     0.02900
C30         C  0.16621881  0.85176176  0.50345815    -0.17700
H31         H  0.17595571  0.86126650  0.50382184     0.04900
H32         H  0.13105551  0.81866925  0.50153897     0.04900
C33         C  0.82944350  0.18279229  0.48440291     0.02900
C34         C  0.81560814  0.17121027  0.48451511     0.02900
C35         C  0.80927877  0.16575088  0.50001670    -0.17700
C36         C  0.81538305  0.17144455  0.51547980     0.02900
C37         C  0.82871748  0.18356747  0.51550176     0.02900
C38         C  0.83556110  0.18847319  0.49994286    -0.17700
H39         H  0.84603624  0.19714600  0.49989362     0.04900
H40         H  0.79898572  0.15680522  0.50002590     0.04900
C41         C  0.81140553  0.83630299  0.48453042     0.02900
C42         C  0.82577704  0.82536639  0.48441567     0.02900
C43         C  0.83303277  0.82088787  0.49988429    -0.17700
C44         C  0.82597904  0.82584800  0.51532537     0.02900
C45         C  0.81130973  0.83619974  0.51515962     0.02900
C46         C  0.80468462  0.84129913  0.49988774    -0.17700
H47         H  0.79394741  0.84976305  0.50007604     0.04900
H48         H  0.84385066  0.81254172  0.49992326     0.04900
C49         C  0.47959219  0.16470770  0.82591838     0.02900
C50         C  0.47885845  0.17548906  0.84003198     0.02900
C51         C  0.49428725  0.18085896  0.84713081    -0.17700
C52         C  0.51033413  0.17640075  0.84077718     0.02900
C53         C  0.51112844  0.16499549  0.82719944     0.02900
C54         C  0.49576027  0.15945813  0.82027950    -0.17700
H55         H  0.49650941  0.15042146  0.81033636     0.04900
H56         H  0.49383356  0.18972413  0.85726842     0.04900
C57         C  0.16014713  0.48718862  0.84567883     0.02900
C58         C  0.14768224  0.48607393  0.83301551     0.02900
C59         C  0.14113430  0.50105728  0.82634383    -0.17700
C60         C  0.14689079  0.51718194  0.83094945     0.02900
C61         C  0.15900163  0.51838005  0.84393873     0.02900
C62         C  0.16511002  0.50333190  0.85104603    -0.17700
H63         H  0.17446604  0.50421425  0.86076332     0.04900
H64         H  0.13162689  0.50007586  0.81677631     0.04900
C65         C  0.47588028  0.83256812  0.15528941     0.02900
C66         C  0.47595100  0.84630260  0.16659109     0.02900
C67         C  0.49170679  0.85322898  0.17113825    -0.17700
C68         C  0.50742590  0.84659729  0.16584349     0.02900
C69         C  0.50738690  0.83293787  0.15432674     0.02900
C70         C  0.49154929  0.82651893  0.14933827    -0.17700
H71         H  0.49132204  0.81646558  0.14033166     0.04900
H72         H  0.49177808  0.86330507  0.18013343     0.04900
C73         C  0.82249781  0.48757259  0.16304716     0.02900
C74         C  0.83488504  0.48832306  0.17590497     0.02900
C75         C  0.84064333  0.50429013  0.18083807    -0.17700
C76         C  0.83443076  0.51951813  0.17419838     0.02900
C77         C  0.82213023  0.51891186  0.16134888     0.02900
C78         C  0.81672788  0.50288788  0.15604926    -0.17700
H79         H  0.80745341  0.50231715  0.14624582     0.04900
H80         H  0.84996443  0.50495871  0.19062308     0.04900
C81         C  0.81453194  0.48325968  0.83966130     0.02900
C82         C  0.82836834  0.48216703  0.82838743     0.02900
C83         C  0.83597036  0.49712717  0.82296463    -0.17700
C84         C  0.82988986  0.51328854  0.82702912     0.02900
C85         C  0.81631238  0.51448660  0.83860700     0.02900
C86         C  0.80922998  0.49945836  0.84485067    -0.17700
H87         H  0.79909542  0.50051028  0.85380735     0.04900
H88         H  0.84680747  0.49605239  0.81486049     0.04900
C89         C  0.47782321  0.84201639  0.82603284     0.02900
C90         C  0.47715311  0.82814928  0.83727909     0.02900
C91         C  0.49253966  0.82150309  0.84327230    -0.17700
C92         C  0.50867500  0.82761653  0.83868735     0.02900
C93         C  0.50930272  0.84179102  0.82788433     0.02900
C94         C  0.49390178  0.84875413  0.82219200    -0.17700
H95         H  0.49454963  0.85918219  0.81361726     0.04900
H96         H  0.49179906  0.81140478  0.85218631     0.04900
C97         C  0.62079172  0.75225270  0.89724904     0.80800
N98         N  0.60656443  0.76221477  0.89777333    -0.77500
C99         C  0.60154864  0.77062665  0.88372605     0.83300
N100        N  0.61024486  0.76838225  0.86947285    -0.77400
C101        C  0.62383940  0.75816873  0.86883153     0.83400
N102        N  0.62914188  0.75031026  0.88269939    -0.79100
C103        C  0.72437286  0.61928652  0.88382400     0.80800
N104        N  0.73800154  0.60848432  0.88354191    -0.77500
C105        C  0.74369050  0.60223758  0.86866259     0.83300
N106        N  0.73580366  0.60688036  0.85453515    -0.77400
C107        C  0.72229101  0.61721486  0.85470575     0.83400
N108        N  0.71664236  0.62340296  0.86931901    -0.79100
C109        C  0.88630384  0.61754001  0.74386396     0.80800
N110        N  0.88762684  0.60652499  0.75687535    -0.77500
C111        C  0.87336703  0.60188063  0.76540673     0.83300
N112        N  0.85818821  0.60816946  0.76081385    -0.77400
C113        C  0.85684343  0.61874212  0.74780175     0.83400
N114        N  0.87084549  0.62325331  0.73931025    -0.79100
C115        C  0.88096628  0.73746288  0.61562435     0.80800
N116        N  0.86632739  0.72911947  0.61864085    -0.77500
C117        C  0.85166195  0.73422723  0.61170240     0.83300
N118        N  0.85149816  0.74807304  0.60215330    -0.77400
C119        C  0.86577275  0.75673061  0.59883337     0.83400
N120        N  0.88081846  0.75139113  0.60550447    -0.79100
C121        C  0.73136294  0.90161240  0.61790819     0.80800
N122        N  0.73049373  0.88742335  0.62711628    -0.77500
C123        C  0.73801954  0.87311204  0.62203797     0.83300
N124        N  0.74662098  0.87286853  0.60765001    -0.77400
C125        C  0.74782677  0.88676379  0.59814154     0.83400
N126        N  0.74002589  0.90136674  0.60312071    -0.79100
C127        C  0.60600523  0.89734115  0.73460997     0.80800
N128        N  0.59574238  0.89687259  0.74848054    -0.77500
C129        C  0.59207665  0.88161418  0.75564586     0.83300
N130        N  0.59871836  0.86752983  0.74901975    -0.77400
C131        C  0.60861437  0.86782855  0.73547830     0.83400
N132        N  0.61219340  0.88271750  0.72824232    -0.79100
O133        O  0.67629658  0.72090969  0.72273286    -0.87700
C134        C  0.71338690  0.75576364  0.71870475     0.88300
Mg135      Mg  0.67966849  0.70008337  0.73927663     1.58100
O136        O  0.70968519  0.72907534  0.68445081    -0.87500
O137        O  0.67172695  0.72684217  0.69665030    -0.74800
C138        C  0.75522002  0.66959088  0.72107918     0.93300
O139        O  0.70256869  0.73399484  0.75028900    -0.74600
O140        O  0.74449792  0.67025731  0.73276682    -0.82100
Mg141      Mg  0.68189729  0.74488796  0.73336682     1.58000
C142        C  0.75354280  0.70905494  0.66405533     0.93300
O143        O  0.66072475  0.75835976  0.71913886    -0.80400
H144        H  0.69626065  0.71959264  0.66577965    -0.05700
C145        C  0.74651090  0.71709496  0.71733951     0.88200
O146        O  0.68725347  0.68305006  0.71730675    -0.74900
O147        O  0.70016939  0.74878228  0.71448575    -0.87700
O148        O  0.74572774  0.72278037  0.66662475    -0.80500
C149        C  0.72203176  0.77098243  0.67441484     0.93400
C150        C  0.66060192  0.76837062  0.70688490     0.93200
Mg151      Mg  0.73241895  0.69139585  0.69356477     1.58000
O152        O  0.75341315  0.67777717  0.70768591    -0.80400
O153        O  0.71188486  0.70283047  0.67689460    -0.74600
O154        O  0.70784054  0.76898938  0.68148090    -0.80500
O155        O  0.66317002  0.74103785  0.75372678    -0.82200
O156        O  0.70755431  0.66754141  0.74745084    -0.80500
C157        C  0.70563913  0.71742090  0.67522314     0.87700
O158        O  0.71430165  0.68709996  0.71302114    -0.87600
O159        O  0.73791349  0.71506944  0.70478336    -0.87800
O160        O  0.74303456  0.70961676  0.73076098    -0.74800
Mg161      Mg  0.69086433  0.74753620  0.68979761     1.58000
O162        O  0.73303715  0.75943500  0.67360258    -0.82200
H163        H  0.65803445  0.70983439  0.70968821    -0.05900
O164        O  0.70516296  0.70780032  0.74280603    -0.87500
H165        H  0.71860141  0.71755990  0.76135386    -0.05700
H166        H  0.70084837  0.67080465  0.69969720    -0.05900
C167        C  0.70913218  0.71954643  0.75194307     0.87600
C168        C  0.66818104  0.71885814  0.70983836     0.88200
C169        C  0.70094606  0.67986800  0.70961697     0.88300
H170        H  0.75688194  0.72588576  0.71703709    -0.05900
O171        O  0.72739116  0.75249323  0.71172825    -0.74900
Mg172      Mg  0.72400654  0.68920762  0.73779012     1.58000
H173        H  0.71309866  0.76452432  0.72892507    -0.05900
C174        C  0.66323402  0.72942591  0.76443968     0.93300
O175        O  0.68350467  0.67838127  0.75694845    -0.82100
C176        C  0.69477679  0.66702648  0.75703220     0.93300
O177        O  0.67134182  0.76735502  0.69526859    -0.82100
Mg178      Mg  0.73525017  0.73645028  0.68937666     1.58200
O179        O  0.67036828  0.71532773  0.76187365    -0.80500
O180        O  0.75169947  0.69632315  0.67334303    -0.82200
C181        C  0.68080039  0.67210504  0.98032235     0.02900
C182        C  0.66691755  0.68349677  0.97997502     0.02900
C183        C  0.65991630  0.68912736  0.99506482    -0.17700
C184        C  0.66616789  0.68446463  0.01074543     0.02900
C185        C  0.68026882  0.67315978  0.01129089     0.02900
C186        C  0.68708369  0.66731249  0.99607497    -0.17700
H187        H  0.69726159  0.65829274  0.99667676     0.04900
H188        H  0.64963713  0.69811683  0.99451655     0.04900
C189        C  0.65593860  0.98952030  0.67929770     0.02900
C190        C  0.66857308  0.98914562  0.66660968     0.02900
C191        C  0.67532343  0.00450541  0.66096051    -0.17700
C192        C  0.67055777  0.02029243  0.66736044     0.02900
C193        C  0.65756170  0.02082166  0.67959183     0.02900
C194        C  0.65063428  0.00542341  0.68515559    -0.17700
H195        H  0.64093624  0.00580943  0.69463173     0.04900
H196        H  0.68502774  0.00415964  0.65147148     0.04900
C197        C  0.97149841  0.68400318  0.67019802     0.02900
C198        C  0.97187519  0.67130516  0.68271672     0.02900
C199        C  0.98775726  0.66500394  0.68767843    -0.17700
C200        C  0.00324319  0.67109417  0.68154341     0.02900
C201        C  0.00303303  0.68434707  0.66970792     0.02900
C202        C  0.98713633  0.69018655  0.66422649    -0.17700
H203        H  0.98694419  0.70002258  0.65497900     0.04900
H204        H  0.98813517  0.65517919  0.69696437     0.04900
C205        C  0.76287787  0.38808151  0.88730523     0.80800
N206        N  0.77000023  0.37342643  0.88230063    -0.77500
C207        C  0.76335041  0.35850320  0.88672229     0.83300
N208        N  0.74935265  0.35811678  0.89627629    -0.77400
C209        C  0.74202799  0.37246908  0.90175949     0.83400
N210        N  0.74878116  0.38768615  0.89726305    -0.79100
C211        C  0.59648746  0.24365683  0.88605691     0.80800
N212        N  0.59648872  0.25360252  0.89996350    -0.77500
C213        C  0.61080675  0.26250641  0.90392735     0.83300
N214        N  0.62481565  0.26096343  0.89436980    -0.77400
C215        C  0.62488668  0.25088224  0.88095862     0.83400
N216        N  0.61075529  0.24242048  0.87685375    -0.79100
C217        C  0.88933866  0.38487205  0.73923195     0.80800
N218        N  0.88561703  0.39794648  0.74971770    -0.77500
C219        C  0.87105197  0.39739685  0.75901006     0.83300
N220        N  0.86107946  0.38360941  0.75824177    -0.77400
C221        C  0.86503565  0.37064194  0.74819271     0.83400
N222        N  0.87899016  0.37144367  0.73864670    -0.79100
C223        C  0.89683059  0.24826556  0.62763633     0.80800
N224        N  0.89190603  0.24006179  0.64143344    -0.77500
C225        C  0.88144417  0.22681399  0.64094196     0.83300
N226        N  0.87549129  0.22154093  0.62617113    -0.77400
C227        C  0.87999203  0.22939007  0.61181145     0.83400
N228        N  0.89080317  0.24301390  0.61248181    -0.79100
C229        C  0.73368966  0.10508194  0.61737252     0.80800
N230        N  0.74283533  0.10971454  0.60359080    -0.77500
C231        C  0.75269816  0.12395707  0.60411564     0.83300
N232        N  0.75363730  0.13281293  0.61848898    -0.77400
C233        C  0.74466730  0.12805692  0.63199479     0.83400
N234        N  0.73477548  0.11436812  0.63124815    -0.79100
C235        C  0.62255739  0.10057587  0.75620701     0.80800
N236        N  0.63684404  0.10348351  0.76485830    -0.77500
C237        C  0.63647369  0.11147682  0.77955727     0.83300
N238        N  0.62154330  0.11706934  0.78567480    -0.77400
C239        C  0.60691366  0.11459079  0.77723057     0.83400
N240        N  0.60735449  0.10615778  0.76237026    -0.79100
O241        O  0.74704336  0.20582121  0.78776817    -0.87700
C242        C  0.78251764  0.21536159  0.82245862     0.88300
Mg243      Mg  0.75061185  0.18704268  0.76932241     1.58100
O244        O  0.77861140  0.24542925  0.79127595    -0.87500
O245        O  0.74131026  0.23260833  0.78957146    -0.74800
C246        C  0.82522770  0.20308805  0.73702922     0.93300
O247        O  0.77300547  0.18034281  0.80478216    -0.74600
O248        O  0.81518833  0.19098175  0.73971210    -0.82100
Mg249      Mg  0.75159493  0.19832960  0.81274976     1.58000
C250        C  0.81897554  0.26601147  0.76854243     0.93300
O251        O  0.72955756  0.21463637  0.82246179    -0.80400
H252        H  0.76451407  0.26240916  0.77941629    -0.05700
C253        C  0.81692266  0.21219390  0.78449966     0.88200
O254        O  0.75813982  0.20718730  0.75039474    -0.74900
O255        O  0.76925776  0.21831055  0.81490708    -0.87700
O256        O  0.81278097  0.26352398  0.78284207    -0.80500
C257        C  0.78882502  0.26319171  0.83058981     0.93400
C258        C  0.72740525  0.22913610  0.82874433     0.93200
Mg259      Mg  0.80207473  0.23217998  0.75605847     1.58000
O260        O  0.82394492  0.21706165  0.74456008    -0.80400
O261        O  0.78061568  0.24947307  0.76460573    -0.74600
O262        O  0.77519924  0.25487522  0.82954393    -0.80500
O263        O  0.73324651  0.17690845  0.81063907    -0.82200
O264        O  0.77916805  0.17551889  0.74005764    -0.80500
C265        C  0.77429917  0.25297914  0.77861653     0.87700
O266        O  0.78503582  0.21166724  0.75455773    -0.87600
O267        O  0.80789580  0.22431623  0.78088498    -0.87800
O268        O  0.81408083  0.19765163  0.77876891    -0.74800
Mg269      Mg  0.75946124  0.24271645  0.80930842     1.58000
O270        O  0.80044077  0.26212214  0.81979620    -0.82200
H271        H  0.72852657  0.21657318  0.77470385    -0.05900
O272        O  0.77618834  0.18401576  0.77808020    -0.87500
H273        H  0.78973795  0.16720070  0.79077330    -0.05700
H274        H  0.77223710  0.22302949  0.73642765    -0.05900
C275        C  0.78000102  0.17669851  0.79105398     0.87600
C276        C  0.73844390  0.21811543  0.78373837     0.88200
C277        C  0.77197853  0.21422221  0.74658767     0.88300
H278        H  0.82717011  0.21391503  0.79312001    -0.05900
O279        O  0.79641988  0.22223236  0.81846116    -0.74900
Mg280      Mg  0.79540009  0.18739397  0.75963573     1.58000
H281        H  0.78237174  0.20632763  0.83243344    -0.05900
C282        C  0.73266089  0.16529891  0.79992381     0.93300
O283        O  0.75361583  0.16793737  0.74863193    -0.82100
C284        C  0.76519708  0.16815344  0.73772640     0.93300
O285        O  0.73852542  0.24050517  0.82779968    -0.82100
Mg286      Mg  0.80399942  0.24261414  0.79972514     1.58200
O287        O  0.74070486  0.16607541  0.78627082    -0.80500
O288        O  0.81923332  0.25474731  0.75743719    -0.82200
C289        C  0.36026485  0.76322954  0.87436340     0.80800
N290        N  0.35652950  0.75431402  0.88809057    -0.77500
C291        C  0.36738295  0.75339546  0.90100431     0.83300
N292        N  0.38263810  0.76162966  0.89997753    -0.77400
C293        C  0.38628143  0.77103820  0.88608294     0.83400
N294        N  0.37502691  0.77164345  0.87349033    -0.79100
C295        C  0.23345700  0.60243121  0.87839184     0.80800
N296        N  0.24005280  0.60883271  0.86432510    -0.77500
C297        C  0.25341759  0.61919863  0.86447003     0.83300
N298        N  0.26049401  0.62349752  0.87903489    -0.77400
C299        C  0.25421544  0.61755364  0.89356064     0.83400
N300        N  0.24048544  0.60684955  0.89336701    -0.79100
C301        C  0.38095774  0.89466227  0.72913357     0.80800
N302        N  0.37579295  0.87969212  0.72284631    -0.77500
C303        C  0.38132001  0.86504297  0.72935955     0.83300
N304        N  0.39206709  0.86531612  0.74223953    -0.77400
C305        C  0.39769036  0.87981748  0.74882849     0.83400
N306        N  0.39201506  0.89482171  0.74236899    -0.79100
C307        C  0.23600940  0.90652193  0.62616996     0.80800
N308        N  0.23668170  0.89242471  0.63548938    -0.77500
C309        C  0.22742501  0.87879248  0.63171479     0.83300
N310        N  0.21705729  0.87916988  0.61852224    -0.77400
C311        C  0.21609451  0.89294287  0.60876500     0.83400
N312        N  0.22586798  0.90677794  0.61234317    -0.79100
C313        C  0.08424867  0.62166031  0.75028048     0.80800
N314        N  0.08408202  0.60744654  0.75992371    -0.77500
C315        C  0.09852986  0.60280922  0.76821339     0.83300
N316        N  0.11283849  0.61190546  0.76625607    -0.77400
C317        C  0.11297187  0.62570900  0.75657201     0.83400
N318        N  0.09868354  0.63059629  0.74888234    -0.79100
C319        C  0.09354630  0.73955913  0.61568797     0.80800
N320        N  0.09325659  0.75382664  0.60590435    -0.77500
C321        C  0.10831356  0.76076446  0.60069900     0.83300
N322        N  0.12295541  0.75346395  0.60541226    -0.77400
C323        C  0.12336201  0.73958627  0.61487207     0.83400
N324        N  0.10867710  0.73266140  0.61998425    -0.79100
O325        O  0.28799512  0.71538676  0.74153136    -0.87700
C326        C  0.23723856  0.71809788  0.75029280     0.88300
Mg327      Mg  0.30299687  0.73707605  0.73667632     1.58100
O328        O  0.24752509  0.70228989  0.71096547    -0.87500
O329        O  0.28111925  0.69171342  0.72943712    -0.74800
C330        C  0.25950983  0.77897742  0.68111521     0.93300
O331        O  0.26625023  0.74500342  0.75876888    -0.74600
O332        O  0.27061759  0.78037045  0.69225055    -0.82100
Mg333      Mg  0.27117684  0.71697117  0.76235283     1.58000
C334        C  0.22148287  0.72074533  0.67051863     0.93300
O335        O  0.27584524  0.68975097  0.76939130    -0.80400
H336        H  0.25863983  0.68517065  0.69649867    -0.05700
C337        C  0.23616171  0.75194402  0.71330895     0.88200
O338        O  0.30139433  0.73180542  0.70860306    -0.74900
O339        O  0.25054022  0.71080409  0.74678367    -0.87700
O340        O  0.21942371  0.71298593  0.68412843    -0.80500
C341        C  0.21023930  0.68451502  0.72866834     0.93400
C342        C  0.26849205  0.67575619  0.76745465     0.93200
Mg343      Mg  0.25595281  0.73735255  0.68455593     1.58000
O344        O  0.25181568  0.76528449  0.67829400    -0.80400
O345        O  0.26013066  0.70899169  0.68776350    -0.74600
O346        O  0.22416757  0.68149887  0.73599500    -0.80500
O347        O  0.29201370  0.72423272  0.77943997    -0.82200
O348        O  0.30350168  0.77174628  0.71104493    -0.80500
C349        C  0.25535344  0.69820047  0.69834211     0.87700
O350        O  0.27743768  0.74263277  0.70011770    -0.87600
O351        O  0.24034039  0.73886332  0.70619024    -0.87800
O352        O  0.24702783  0.76257434  0.71801745    -0.74800
Mg353      Mg  0.25248901  0.68807312  0.73278641     1.58000
O354        O  0.20878084  0.69582437  0.71770225    -0.82200
H355        H  0.30513453  0.70031404  0.73104964    -0.05900
O356        O  0.28014698  0.75136704  0.73626742    -0.87500
H357        H  0.26824325  0.76869784  0.74986121    -0.05700
H358        H  0.29368782  0.73145774  0.68465906    -0.05900
C359        C  0.27168144  0.75565059  0.74840736     0.87600
C360        C  0.29201828  0.70239604  0.73410223     0.88200
C361        C  0.29090117  0.73528352  0.69719152     0.88300
H362        H  0.22300044  0.75411135  0.71608076    -0.05900
O363        O  0.22686397  0.72255654  0.73921609    -0.74900
Mg364      Mg  0.27564312  0.76522796  0.71450918     1.58000
H365        H  0.23470041  0.72133056  0.76303268    -0.05900
C366        C  0.30302407  0.73572171  0.77836988     0.93300
O367        O  0.31900810  0.75985864  0.73077846    -0.82100
C368        C  0.31710201  0.77059457  0.71929680     0.93300
O369        O  0.25814200  0.67304970  0.75576300    -0.82100
Mg370      Mg  0.22515314  0.71763920  0.71142941     1.58200
O371        O  0.30705597  0.74244931  0.76460420    -0.80500
O372        O  0.23322528  0.73140694  0.66840776    -0.82200
C373        C  0.30978869  0.98833975  0.66970066     0.02900
C374        C  0.32299611  0.98719091  0.68177440     0.02900
C375        C  0.32983387  0.00237075  0.68793336    -0.17700
C376        C  0.32448299  0.01852148  0.68287231     0.02900
C377        C  0.31149237  0.01960179  0.67070964     0.02900
C378        C  0.30461054  0.00451361  0.66448057    -0.17700
H379        H  0.29466577  0.00540612  0.65532596     0.04900
H380        H  0.33957019  0.00160334  0.69727524     0.04900
C381        C  0.37696076  0.26764844  0.89190733     0.80800
N382        N  0.38753653  0.25388516  0.89060004    -0.77500
C383        C  0.39410820  0.24962956  0.87532618     0.83300
N384        N  0.38986771  0.25900837  0.86192969    -0.77400
C385        C  0.37954487  0.27242322  0.86316261     0.83400
N386        N  0.37319440  0.27666145  0.87811766    -0.79100
C387        C  0.24252648  0.37961238  0.90172652     0.80800
N388        N  0.24504263  0.37220264  0.88681294    -0.77500
C389        C  0.23708199  0.37785417  0.87309391     0.83300
N390        N  0.22619519  0.39084680  0.87425795    -0.77400
C391        C  0.22349543  0.39868058  0.88887916     0.83400
N392        N  0.23186522  0.39323661  0.90280063    -0.79100
C393        C  0.26558288  0.11596246  0.61950012     0.80800
N394        N  0.27366106  0.13031753  0.62393990    -0.77500
C395        C  0.26810267  0.14544123  0.61857323     0.83300
N396        N  0.25445352  0.14622624  0.60865804    -0.77400
C397        C  0.24617589  0.13223304  0.60383387     0.83400
N398        N  0.25167479  0.11685723  0.60933724    -0.79100
C399        C  0.36960966  0.10631216  0.74820222     0.80800
N400        N  0.36055025  0.12078968  0.74759887    -0.77500
C401        C  0.36517078  0.13440928  0.75641815     0.83300
N402        N  0.37893210  0.13365050  0.76615869    -0.77400
C403        C  0.38841697  0.11954885  0.76709102     0.83400
N404        N  0.38394487  0.10569272  0.75786548    -0.79100
C405        C  0.09579622  0.26113429  0.61782442     0.80800
N406        N  0.09507181  0.24811389  0.60675845    -0.77500
C407        C  0.10917214  0.23848488  0.60400063     0.83300
N408        N  0.12354968  0.24180870  0.61240226    -0.77400
C409        C  0.12436533  0.25480658  0.62307945     0.83400
N410        N  0.11054155  0.26449451  0.62565698    -0.79100
C411        C  0.09954868  0.38242000  0.74302773     0.80800
N412        N  0.11426231  0.37825854  0.73535605    -0.77500
C413        C  0.12903165  0.38522071  0.74000356     0.83300
N414        N  0.12922573  0.39610416  0.75274833    -0.77400
C415        C  0.11490047  0.40057104  0.76079831     0.83400
N416        N  0.09972847  0.39382792  0.75586202    -0.79100
O417        O  0.27943661  0.25918421  0.71230487    -0.87700
C418        C  0.31579529  0.29452899  0.71970042     0.88300
Mg419      Mg  0.25994365  0.26151826  0.69432782     1.58100
O420        O  0.28489226  0.29186992  0.75054307    -0.87500
O421        O  0.28259580  0.25455535  0.73882203    -0.74800
C422        C  0.22788736  0.33603113  0.70860123     0.93300
O423        O  0.29584184  0.28386028  0.68553277    -0.74600
O424        O  0.22965767  0.32527594  0.69716809    -0.82100
Mg425      Mg  0.30458521  0.26332796  0.70375383     1.58000
C426        C  0.26201438  0.33391277  0.76930594     0.93300
O427        O  0.31438249  0.24201639  0.72018159    -0.80400
H428        H  0.27310314  0.27877511  0.76820429    -0.05700
C429        C  0.27716342  0.32795315  0.71581641     0.88200
O430        O  0.24137151  0.26984529  0.71460677    -0.74900
O431        O  0.30772966  0.28165460  0.72288617    -0.87700
O432        O  0.27651704  0.32723098  0.76747960    -0.80500
C433        C  0.32504064  0.30145332  0.76762996     0.93400
C434        C  0.32150807  0.24005462  0.73412603     0.93200
Mg435      Mg  0.24870236  0.31473456  0.73716581     1.58000
O436        O  0.23693908  0.33587222  0.72158421    -0.80400
O437        O  0.25778162  0.29427552  0.75509776    -0.74600
O438        O  0.32486654  0.28855843  0.75835957    -0.80500
O439        O  0.30159341  0.24401339  0.68352654    -0.82200
O440        O  0.22884729  0.28907072  0.68253864    -0.80500
C441        C  0.27212312  0.28803295  0.75847679     0.87700
O442        O  0.24623626  0.29658162  0.71786945    -0.87600
O443        O  0.27394252  0.32005811  0.72862406    -0.87800
O444        O  0.27020356  0.32440067  0.70207804    -0.74800
Mg445      Mg  0.30333234  0.27267697  0.74748432     1.58000
O446        O  0.31386264  0.31289199  0.76654249    -0.82200
H447        H  0.26648390  0.24141751  0.72429811    -0.05900
O448        O  0.26857328  0.28666914  0.68961926    -0.87500
H449        H  0.28095422  0.29966468  0.67226798    -0.05700
H450        H  0.22806950  0.28464473  0.73039365    -0.05900
C451        C  0.28160921  0.29036861  0.68197052     0.87600
C452        C  0.27586784  0.25121862  0.72496254     0.88200
C453        C  0.23803652  0.28387745  0.72126256     0.88300
H454        H  0.28633369  0.33793737  0.71624574    -0.05900
O455        O  0.31239410  0.30844576  0.72665780    -0.74900
Mg456      Mg  0.24983795  0.30569386  0.69326314     1.58000
H457        H  0.32578276  0.29400286  0.71059174    -0.05900
C458        C  0.29019072  0.24251555  0.67263003     0.93300
O459        O  0.23839497  0.26361149  0.67612348    -0.82100
C460        C  0.22700830  0.27486071  0.67562393     0.93300
O461        O  0.32209693  0.25163949  0.74484498    -0.82100
Mg462      Mg  0.29353238  0.31684656  0.74686997     1.58200
O463        O  0.27631729  0.25060060  0.67338018    -0.80500
O464        O  0.25070513  0.33318273  0.75822095    -0.82200
C465        C  0.97815222  0.32122512  0.67060587     0.02900
C466        C  0.97803962  0.33278785  0.68405920     0.02900
C467        C  0.99365027  0.33784429  0.69084180    -0.17700
C468        C  0.00950644  0.33191589  0.68530620     0.02900
C469        C  0.00955986  0.32012471  0.67196442     0.02900
C470        C  0.99393477  0.31540693  0.66488536    -0.17700
H471        H  0.99403945  0.30650672  0.65474485     0.04900
H472        H  0.99339471  0.34674697  0.70096265     0.04900
C473        C  0.31911524  0.31314323  0.98424700     0.02900
C474        C  0.30788835  0.32719940  0.98467272     0.02900
C475        C  0.30345983  0.33395036  0.00018796    -0.17700
C476        C  0.30933064  0.32753510  0.01545703     0.02900
C477        C  0.32042827  0.31330189  0.01518777     0.02900
C478        C  0.32477716  0.30642921  0.99952399    -0.17700
H479        H  0.33346779  0.29589251  0.99915167     0.04900
H480        H  0.29443398  0.34420858  0.00034862     0.04900
C481        C  0.33197575  0.01625743  0.32800383     0.02900
C482        C  0.31763348  0.01674582  0.33880357     0.02900
C483        C  0.30982614  0.00136828  0.34289081    -0.17700
C484        C  0.31535305  0.98558591  0.33694311     0.02900
C485        C  0.32996954  0.98512161  0.32655476     0.02900
C486        C  0.33805900  0.00043034  0.32276812    -0.17700
H487        H  0.34882142  0.00008335  0.31445356     0.04900
H488        H  0.29912086  0.00166825  0.35125825     0.04900
C489        C  0.24587158  0.37519975  0.10254014     0.80800
N490        N  0.23561120  0.38913587  0.10188747    -0.77500
C491        C  0.22695466  0.39409004  0.11587924     0.83300
N492        N  0.22902893  0.38545287  0.13021342    -0.77400
C493        C  0.23956669  0.37211674  0.13092793     0.83400
N494        N  0.24774652  0.36706196  0.11713019    -0.79100
C495        C  0.37860357  0.26147758  0.10426852     0.80800
N496        N  0.37389588  0.26836449  0.11898016    -0.77500
C497        C  0.37915395  0.26169051  0.13348853     0.83300
N498        N  0.38928614  0.24807802  0.13336632    -0.77400
C499        C  0.39467164  0.24106261  0.11906142     0.83400
N500        N  0.38924011  0.24769878  0.10422105    -0.79100
C501        C  0.38153389  0.09775846  0.25904337     0.80800
N502        N  0.37215053  0.11195516  0.25928715    -0.77500
C503        C  0.37662667  0.12558202  0.25046243     0.83300
N504        N  0.39065828  0.12511226  0.24099412    -0.77400
C505        C  0.40039428  0.11112881  0.24027061     0.83400
N506        N  0.39603370  0.09725627  0.24956777    -0.79100
C507        C  0.26752554  0.10980600  0.39254628     0.80800
N508        N  0.25408499  0.11056848  0.40339254    -0.77500
C509        C  0.24812337  0.12597856  0.40843970     0.83300
N510        N  0.25547700  0.14008899  0.40249270    -0.77400
C511        C  0.26874205  0.13938424  0.39197770     0.83400
N512        N  0.27470350  0.12427234  0.38709999    -0.79100
C513        C  0.10293265  0.26251376  0.38818642     0.80800
N514        N  0.10257226  0.25330381  0.40261274    -0.77500
C515        C  0.11696762  0.24513721  0.40776780     0.83300
N516        N  0.13130137  0.24653296  0.39876442    -0.77400
C517        C  0.13170791  0.25561737  0.38468297     0.83400
N518        N  0.11755502  0.26349556  0.37941804    -0.79100
C519        C  0.11207333  0.38948195  0.27422660     0.80800
N520        N  0.11164634  0.39850343  0.25967724    -0.77500
C521        C  0.12654633  0.40337368  0.25235718     0.83300
N522        N  0.14134824  0.39898117  0.25946799    -0.77400
C523        C  0.14187312  0.39020480  0.27372332     0.83400
N524        N  0.12726097  0.38550361  0.28107146    -0.79100
O525        O  0.28000776  0.30985788  0.27230413    -0.87700
C526        C  0.24340170  0.27566501  0.28326409     0.88300
Mg527      Mg  0.29830739  0.30484609  0.25347152     1.58100
O528        O  0.27527954  0.27835924  0.31330964    -0.87500
O529        O  0.27852751  0.31529902  0.29888110    -0.74800
C530        C  0.32470834  0.22812846  0.26947519     0.93300
O531        O  0.26123137  0.28342301  0.24798875    -0.74600
O532        O  0.32420530  0.23903704  0.25808188    -0.82100
Mg533      Mg  0.25425291  0.30510400  0.26535386     1.58000
C534        C  0.29472381  0.23332095  0.33161256     0.93300
O535        O  0.24462779  0.32744912  0.28024341    -0.80400
H536        H  0.28853550  0.29127939  0.33000958    -0.05700
C537        C  0.27916809  0.24071240  0.28000821     0.88200
O538        O  0.31761919  0.29648706  0.27331714    -0.74900
O539        O  0.25228754  0.28814451  0.28559800    -0.87700
O540        O  0.28157458  0.24254808  0.33135892    -0.80500
C541        C  0.23368005  0.26983013  0.32910946     0.93400
C542        C  0.23702830  0.32936165  0.29396368     0.93200
Mg543      Mg  0.30926908  0.25269487  0.29931696     1.58000
O544        O  0.31808339  0.23049291  0.28361386    -0.80400
O545        O  0.30232649  0.27422250  0.31707288    -0.74600
O546        O  0.23620153  0.28341667  0.32126244    -0.80500
O547        O  0.25577670  0.32234118  0.24348408    -0.82200
O548        O  0.32735932  0.27462692  0.24218578    -0.80500
C549        C  0.28855920  0.28163060  0.32062978     0.87700
O550        O  0.31205488  0.27020243  0.27907858    -0.87600
O551        O  0.28367458  0.24908462  0.29206309    -0.87800
O552        O  0.28514813  0.24331803  0.26564960    -0.74800
Mg553      Mg  0.25762159  0.29827131  0.30945890     1.58000
O554        O  0.24450194  0.25805419  0.32945551    -0.82200
H555        H  0.29421249  0.32743967  0.28302066    -0.05900
O556        O  0.28830173  0.28006998  0.25169970    -0.87500
H557        H  0.27540830  0.26665035  0.23511740    -0.05700
H558        H  0.33106652  0.28257214  0.28974402    -0.05900
C559        C  0.27514687  0.27640034  0.24440650     0.87600
C560        C  0.28455007  0.31802546  0.28452054     0.88200
C561        C  0.32073125  0.28292231  0.28106829     0.88300
H562        H  0.26955526  0.23125312  0.28164504    -0.05900
O563        O  0.24631084  0.26187682  0.29057586    -0.74900
Mg564      Mg  0.30599992  0.26029711  0.25511498     1.58000
H565        H  0.23314107  0.27639302  0.27447093    -0.05900
C566        C  0.26649671  0.32246858  0.23180117     0.93300
O567        O  0.31754932  0.29924117  0.23340551    -0.82100
C568        C  0.32804749  0.28720320  0.23250506     0.93300
O569        O  0.23873373  0.31913702  0.30586902    -0.82100
Mg570      Mg  0.26508945  0.25354977  0.31056067     1.58200
O571        O  0.28083450  0.31526274  0.23299249    -0.80500
O572        O  0.30596851  0.23405598  0.32037875    -0.82200
C573        C  0.01725715  0.32847873  0.33971333     0.02900
C574        C  0.01735264  0.33932610  0.32568967     0.02900
C575        C  0.00160006  0.34480428  0.31939350    -0.17700
C576        C  0.98583442  0.33966340  0.32586799     0.02900
C577        C  0.98573008  0.32871830  0.33988843     0.02900
C578        C  0.00151228  0.32383619  0.34665617    -0.17700
H579        H  0.00160021  0.31531833  0.35711030     0.04900
H580        H  0.00149104  0.35363293  0.30921392     0.04900
C581        C  0.65960966  0.32494431  0.98903380     0.02900
C582        C  0.67166417  0.33816901  0.98786255     0.02900
C583        C  0.67797750  0.34516260  0.00273718    -0.17700
C584        C  0.67360157  0.33916800  0.01867012     0.02900
C585        C  0.66135223  0.32607044  0.01963332     0.02900
C586        C  0.65447506  0.31965802  0.00492145    -0.17700
H587        H  0.64510213  0.30980377  0.00592558     0.04900
H588        H  0.68732558  0.35501629  0.00185296     0.04900
C589        C  0.89909895  0.39199378  0.26640746     0.80800
N590        N  0.88855107  0.37868228  0.26643676    -0.77500
C591        C  0.87415519  0.37882184  0.25756139     0.83300
N592        N  0.87005933  0.39249363  0.24855140    -0.77400
C593        C  0.88012153  0.40622911  0.24825465     0.83400
N594        N  0.89507724  0.40595456  0.25703556    -0.79100
C595        C  0.90136077  0.25699768  0.37979713     0.80800
N596        N  0.89594871  0.24990692  0.36562328    -0.77500
C597        C  0.88510216  0.23695040  0.36557091     0.83300
N598        N  0.87902930  0.23103825  0.38008241    -0.77400
C599        C  0.88408586  0.23770977  0.39475043     0.83400
N600        N  0.89551699  0.25083779  0.39472396    -0.79100
C601        C  0.60226377  0.23869759  0.11996063     0.80800
N602        N  0.60360291  0.24710353  0.10510761    -0.77500
C603        C  0.61796825  0.25620739  0.10177669     0.83300
N604        N  0.63051212  0.25669316  0.11309323    -0.77400
C605        C  0.62921951  0.24849029  0.12761057     0.83400
N606        N  0.61519925  0.23945698  0.13094552    -0.79100
C607        C  0.77170985  0.39414675  0.11151731     0.80800
N608        N  0.75772547  0.39391431  0.10136724    -0.77500
C609        C  0.75062466  0.37876996  0.09715911     0.83300
N610        N  0.75738268  0.36445343  0.10325302    -0.77400
C611        C  0.77116182  0.36461000  0.11302137     0.83400
N612        N  0.77828320  0.37942366  0.11709285    -0.79100
C613        C  0.62492529  0.09647875  0.24164254     0.80800
N614        N  0.63911725  0.10401849  0.23621291    -0.77500
C615        C  0.63899227  0.11500579  0.22359366     0.83300
N616        N  0.62424977  0.11862734  0.21598108    -0.77400
C617        C  0.60957504  0.11132251  0.22105079     0.83400
N618        N  0.60980564  0.10018560  0.23413253    -0.79100
C619        C  0.73055410  0.10531486  0.38500324     0.80800
N620        N  0.73318614  0.11560149  0.37191526    -0.77500
C621        C  0.74492661  0.12786995  0.37241940     0.83300
N622        N  0.75409182  0.13019683  0.38635715    -0.77400
C623        C  0.75150027  0.12050781  0.39994219     0.83400
N624        N  0.73972917  0.10777952  0.39927561    -0.79100
O625        O  0.81411904  0.23299312  0.22482898    -0.87700
C626        C  0.77861763  0.22666484  0.26088752     0.88300
Mg627      Mg  0.81078133  0.25103522  0.20534686     1.58100
O628        O  0.78014671  0.19432004  0.23130044    -0.87500
O629        O  0.81822302  0.20601333  0.22857355    -0.74800
C630        C  0.73213222  0.23974582  0.18070546     0.93300
O631        O  0.78890209  0.26044419  0.24090570    -0.74600
O632        O  0.74322618  0.25121954  0.18033292    -0.82100
Mg633      Mg  0.80948209  0.24218301  0.24946792     1.58000
C634        C  0.73504509  0.17835406  0.21107884     0.93300
O635        O  0.83081915  0.22618497  0.26060742    -0.80400
H636        H  0.79299225  0.17671461  0.21891119    -0.05700
C637        C  0.74481001  0.23063576  0.22490183     0.88200
O638        O  0.80166778  0.23055576  0.18754591    -0.74900
O639        O  0.79118635  0.22290757  0.25260731    -0.87700
O640        O  0.74314770  0.17880382  0.22464451    -0.80500
C641        C  0.76850094  0.18121912  0.27248997     0.93400
C642        C  0.83130534  0.21275478  0.26912813     0.93200
Mg643      Mg  0.75642831  0.20904886  0.19639189     1.58000
O644        O  0.73502218  0.22546827  0.18704710    -0.80400
O645        O  0.77709490  0.19045055  0.20460504    -0.74600
O646        O  0.78294376  0.18796606  0.27056727    -0.80500
O647        O  0.82784705  0.26361485  0.24668067    -0.82200
O648        O  0.78120061  0.26386552  0.17618535    -0.80500
C649        C  0.78369231  0.18663466  0.21844496     0.87700
O650        O  0.77459051  0.22814531  0.19264641    -0.87600
O651        O  0.75274153  0.21784012  0.22108624    -0.87800
O652        O  0.74809592  0.24474492  0.21840784    -0.74800
Mg653      Mg  0.79968041  0.19776479  0.24913624     1.58000
O654        O  0.75737453  0.18142092  0.26120506    -0.82200
H655        H  0.83175817  0.22013413  0.21238519    -0.05900
O656        O  0.78583662  0.25564971  0.21446843    -0.87500
H657        H  0.77324013  0.27389591  0.22614746    -0.05700
H658        H  0.78612255  0.21512126  0.17473192    -0.05900
C659        C  0.78241606  0.26388404  0.22697811     0.87600
C660        C  0.82186380  0.21987760  0.22161375     0.88200
C661        C  0.78725184  0.22435458  0.18444787     0.88300
H662        H  0.73518568  0.22988431  0.23437184    -0.05900
O663        O  0.76430949  0.22019935  0.25799510    -0.74900
Mg664      Mg  0.76571041  0.25317471  0.19749345     1.58000
H665        H  0.77974854  0.23595647  0.27054972    -0.05900
C666        C  0.82785779  0.27467430  0.23536289     0.93300
O667        O  0.80726509  0.26998502  0.18461936    -0.82100
C668        C  0.79519521  0.27143790  0.17435904     0.93300
O669        O  0.82021007  0.20137504  0.26787612    -0.82100
Mg670      Mg  0.75513543  0.19973965  0.24018298     1.58200
O671        O  0.82125257  0.27216291  0.22125761    -0.80500
O672        O  0.73708012  0.18915364  0.19977647    -0.82200
C673        C  0.66736983  0.01823157  0.33654414     0.02900
C674        C  0.65550325  0.01903552  0.32325769     0.02900
C675        C  0.64872113  0.00396962  0.31695112    -0.17700
C676        C  0.65346088  0.98779325  0.32246304     0.02900
C677        C  0.66504378  0.98692982  0.33601773     0.02900
C678        C  0.67153278  0.00209527  0.34260385    -0.17700
H679        H  0.68041459  0.00125083  0.35274455     0.04900
H680        H  0.63949808  0.00502071  0.30715857     0.04900
C681        C  0.73114312  0.90141776  0.38243134     0.80800
N682        N  0.74037273  0.90111730  0.39684854    -0.77500
C683        C  0.75195444  0.88837682  0.39923663     0.83300
N684        N  0.75386951  0.87631647  0.38757431    -0.77400
C685        C  0.74445439  0.87650212  0.37372456     0.83400
N686        N  0.73323928  0.88894697  0.37130137    -0.79100
C687        C  0.59703587  0.89773393  0.26910992     0.80800
N688        N  0.58699936  0.89787328  0.25505183    -0.77500
C689        C  0.58173631  0.88275442  0.24842526     0.83300
N690        N  0.58681109  0.86830945  0.25564798    -0.77400
C691        C  0.59666221  0.86811702  0.26914818     0.83400
N692        N  0.60169477  0.88276206  0.27579308    -0.79100
C693        C  0.88168148  0.73674096  0.38237857     0.80800
N694        N  0.88081090  0.75010324  0.39327624    -0.77500
C695        C  0.86518195  0.75604675  0.39821367     0.83300
N696        N  0.85109453  0.74876911  0.39209280    -0.77400
C697        C  0.85188541  0.73568006  0.38158540     0.83400
N698        N  0.86711633  0.72972884  0.37682230    -0.79100
C699        C  0.89723077  0.62847668  0.24751876     0.80800
N700        N  0.89747767  0.61334445  0.23932110    -0.77500
C701        C  0.88414885  0.60915308  0.22923539     0.83300
N702        N  0.87077417  0.61966766  0.22799536    -0.77400
C703        C  0.87038577  0.63433228  0.23629801     0.83400
N704        N  0.88358026  0.63866458  0.24593367    -0.79100
C705        C  0.61514392  0.75595433  0.08983119     0.80800
N706        N  0.62560224  0.75734131  0.10294552    -0.77500
C707        C  0.62214874  0.76766185  0.11568637     0.83300
N708        N  0.60799196  0.77704057  0.11543882    -0.77400
C709        C  0.59693663  0.77599582  0.10272434     0.83400
N710        N  0.60031141  0.76517197  0.08970066    -0.79100
C711        C  0.73192542  0.61855502  0.10181583     0.80800
N712        N  0.74551826  0.60772278  0.10283446    -0.77500
C713        C  0.75150209  0.60307278  0.11819387     0.83300
N714        N  0.74403073  0.60939823  0.13193843    -0.77400
C715        C  0.73058274  0.61978971  0.13091137     0.83400
N716        N  0.72461366  0.62425054  0.11592500    -0.79100
O717        O  0.74820573  0.73068572  0.27350341    -0.87700
C718        C  0.71343523  0.69499124  0.26423814     0.88300
Mg719      Mg  0.74469422  0.74884967  0.29232497     1.58100
O720        O  0.71582718  0.72713241  0.23497153    -0.87500
O721        O  0.75345878  0.72951057  0.24693961    -0.74800
C722        C  0.66828355  0.77910736  0.27948889     0.93300
O723        O  0.72308008  0.71239756  0.29889996    -0.74600
O724        O  0.67894448  0.77700924  0.29102607    -0.82100
Mg725      Mg  0.74432420  0.70523210  0.28069176     1.58000
C726        C  0.67384371  0.74985236  0.21658403     0.93300
O727        O  0.76618480  0.69672077  0.26416088    -0.80400
H728        H  0.72905301  0.73996700  0.21812679    -0.05700
C729        C  0.67836927  0.73235389  0.26902755     0.88200
O730        O  0.73627100  0.76820300  0.27295775    -0.74900
O731        O  0.72642329  0.70305276  0.26122677    -0.87700
O732        O  0.68062426  0.73546161  0.21817907    -0.80500
C733        C  0.70576600  0.68710686  0.21779813     0.93400
C734        C  0.76870895  0.69063909  0.24982139     0.93200
Mg735      Mg  0.69172934  0.76198500  0.24957074     1.58000
O736        O  0.66997401  0.77230768  0.26534906    -0.80400
O737        O  0.71287739  0.75421094  0.23165892    -0.74600
O738        O  0.71975908  0.68855555  0.22534013    -0.80500
O739        O  0.76296753  0.70712177  0.30172427    -0.82200
O740        O  0.71587809  0.77800170  0.30515101    -0.80500
C741        C  0.71953531  0.74027206  0.22771912     0.87700
O742        O  0.70931455  0.76361630  0.26927424    -0.87600
O743        O  0.68688538  0.73656899  0.25689057    -0.87800
O744        O  0.68147187  0.73794495  0.28340242    -0.74800
Mg745      Mg  0.73561286  0.70920764  0.23704376     1.58000
O746        O  0.69406371  0.69796829  0.21891639    -0.82200
H747        H  0.76620665  0.74455259  0.26281648    -0.05900
O748        O  0.71946585  0.73947879  0.29577925    -0.87500
H749        H  0.70641126  0.72615271  0.31239883    -0.05700
H750        H  0.72148049  0.78232068  0.25791031    -0.05900
C751        C  0.71598909  0.72615809  0.30285782     0.87600
C752        C  0.75647387  0.73519259  0.26129852     0.88200
C753        C  0.72216475  0.77192489  0.26647146     0.88300
H754        H  0.66836908  0.72331269  0.26744644    -0.05900
O755        O  0.69928025  0.69883927  0.25785392    -0.74900
Mg756      Mg  0.69980036  0.75774650  0.29339174     1.58000
H757        H  0.71404529  0.68468660  0.27290814    -0.05900
C758        C  0.76335459  0.71785119  0.31331457     0.93300
O759        O  0.74164728  0.76894985  0.31158817    -0.82100
C760        C  0.73003149  0.77990365  0.31227465     0.93300
O761        O  0.75746827  0.69090078  0.23864947    -0.82100
Mg762      Mg  0.69065528  0.71803599  0.23833403     1.58200
O763        O  0.75530506  0.73165938  0.31255799    -0.80500
O764        O  0.67381889  0.76067571  0.22808654    -0.82200
C765        C  0.97818771  0.67350383  0.32016125     0.02900
C766        C  0.97765879  0.68711961  0.33162447     0.02900
C767        C  0.99320112  0.69284825  0.33814849    -0.17700
C768        C  0.00918390  0.68614601  0.33364593     0.02900
C769        C  0.00955986  0.67277023  0.32185256     0.02900
C770        C  0.99406746  0.66668940  0.31578037    -0.17700
H771        H  0.99449256  0.65677877  0.30660354     0.04900
H772        H  0.99278444  0.70262446  0.34741979     0.04900
C773        C  0.24717102  0.90084806  0.38311241     0.80800
N774        N  0.23650276  0.90071275  0.39656922    -0.77500
C775        C  0.22602396  0.88720836  0.39913336     0.83300
N776        N  0.22626161  0.87427612  0.38822445    -0.77400
C777        C  0.23685967  0.87438968  0.37505887     0.83400
N778        N  0.24726357  0.88759526  0.37264628    -0.79100
C779        C  0.37702151  0.89890993  0.26163722     0.80800
N780        N  0.36992534  0.88451395  0.26736138    -0.77500
C781        C  0.37506403  0.86942353  0.26162383     0.83300
N782        N  0.38695951  0.86868758  0.24973573    -0.77400
C783        C  0.39422243  0.88264409  0.24347403     0.83400
N784        N  0.38939401  0.89809780  0.24954931    -0.79100
C785        C  0.23434862  0.59799889  0.11745443     0.80800
N786        N  0.24173240  0.60303149  0.13165027    -0.77500
C787        C  0.25596951  0.61220036  0.13162444     0.83300
N788        N  0.26301482  0.61676031  0.11705175    -0.77400
C789        C  0.25591715  0.61220356  0.10242951     0.83400
N790        N  0.24136560  0.60266850  0.10252457    -0.79100
C791        C  0.08489417  0.62363026  0.24591633     0.80800
N792        N  0.09757967  0.63457170  0.24294376    -0.77500
C793        C  0.11089317  0.63055822  0.23329881     0.83300
N794        N  0.11157977  0.61533682  0.22608851    -0.77400
C795        C  0.09915700  0.60392631  0.22855028     0.83400
N796        N  0.08567542  0.60788634  0.23880158    -0.79100
C797        C  0.09963715  0.73606910  0.39106040     0.80800
N798        N  0.11401262  0.72989479  0.38429879    -0.77500
C799        C  0.12922291  0.73635036  0.38803008     0.83300
N800        N  0.13023826  0.74916395  0.39883520    -0.77400
C801        C  0.11620820  0.75569992  0.40605961     0.83400
N802        N  0.10057119  0.74924244  0.40208664    -0.79100
C803        C  0.36029642  0.76694359  0.12021124     0.80800
N804        N  0.37500301  0.77547012  0.12036535    -0.77500
C805        C  0.38562626  0.77493156  0.10718887     0.83300
N806        N  0.38154502  0.76517748  0.09366474    -0.77400
C807        C  0.36636114  0.75675192  0.09349365     0.83400
N808        N  0.35608599  0.75783509  0.10681476    -0.79100
O809        O  0.23698853  0.74187179  0.28053807    -0.87700
C810        C  0.28618253  0.74053671  0.29442829     0.88300
Mg811      Mg  0.22234799  0.72034927  0.27546202     1.58100
O812        O  0.27934365  0.75202624  0.25332347    -0.87500
O813        O  0.24406628  0.76451743  0.26697434    -0.74800
C814        C  0.26897445  0.67387525  0.22552174     0.93300
O815        O  0.25645437  0.71377425  0.30110023    -0.74600
O816        O  0.25726913  0.67265214  0.23620395    -0.82100
Mg817      Mg  0.25126020  0.74207333  0.30298432     1.58000
C818        C  0.30736241  0.73228070  0.21611089     0.93300
O819        O  0.24595250  0.77014513  0.30776979    -0.80400
H820        H  0.27007883  0.76801411  0.23657573    -0.05700
C821        C  0.29046291  0.70231078  0.26005660     0.88200
O822        O  0.22697819  0.72382092  0.24757805    -0.74900
O823        O  0.27323906  0.74739818  0.28918820    -0.87700
O824        O  0.30926157  0.74034810  0.22954712    -0.80500
C825        C  0.31383915  0.77324479  0.27197105     0.93400
C826        C  0.25238247  0.78429471  0.30406448     0.93200
Mg827      Mg  0.27364965  0.71518745  0.22904222     1.58000
O828        O  0.27788360  0.68705524  0.22404111    -0.80400
O829        O  0.26927450  0.74359022  0.22964673    -0.74600
O830        O  0.29916091  0.77586521  0.27783055    -0.80500
O831        O  0.22873677  0.73574278  0.31812854    -0.82200
O832        O  0.22269225  0.68436366  0.25144809    -0.80500
C833        C  0.27300781  0.75515707  0.23973146     0.87700
O834        O  0.25095863  0.71111733  0.24246762    -0.87600
O835        O  0.28732691  0.71515485  0.25201156    -0.87800
O836        O  0.27900920  0.69175601  0.26371328    -0.74800
Mg837      Mg  0.27197999  0.76841349  0.27268043     1.58000
O838        O  0.31721481  0.76082904  0.26261407    -0.82200
H839        H  0.22014520  0.75567881  0.26817682    -0.05900
O840        O  0.24445274  0.70490707  0.27827991    -0.87500
H841        H  0.25599907  0.68937661  0.29405294    -0.05700
H842        H  0.23713410  0.72169812  0.22459510    -0.05900
C843        C  0.25220555  0.70209351  0.29126911     0.87600
C844        C  0.23309884  0.75415721  0.27203154     0.88200
C845        C  0.23832044  0.71878410  0.23760670     0.88300
H846        H  0.30320870  0.70014410  0.26433701    -0.05900
O847        O  0.29752656  0.73501048  0.28473656    -0.74900
Mg848      Mg  0.25059720  0.68925103  0.25771892     1.58000
H849        H  0.28752056  0.73853429  0.30758551    -0.05900
C850        C  0.21725045  0.72483572  0.31639766     0.93300
O851        O  0.20607411  0.69849083  0.26884182    -0.82100
C852        C  0.20819757  0.68777913  0.25741452     0.93300
O853        O  0.26347154  0.78591401  0.29278988    -0.82100
Mg854      Mg  0.30192879  0.73746062  0.25687587     1.58200
O855        O  0.21474854  0.71715498  0.30281144    -0.80500
O856        O  0.29704689  0.72022528  0.21467860    -0.82200
C857        C  0.30767151  0.67154916  0.98333846     0.02900
C858        C  0.32133624  0.68323204  0.98355817     0.02900
C859        C  0.32780850  0.68827648  0.99901725    -0.17700
C860        C  0.32110125  0.68289773  0.01435126     0.02900
C861        C  0.30757496  0.67104345  0.01424538     0.02900
C862        C  0.30125856  0.66585563  0.99871138    -0.17700
H863        H  0.29123396  0.65663790  0.99857780     0.04900
H864        H  0.33784713  0.69750640  0.99909619     0.04900
C865        C  0.34318426  0.72935148  0.06790706     0.30400
C866        C  0.32864776  0.72029312  0.06323910    -0.36000
C867        C  0.33058411  0.70878373  0.05015981     0.16400
C868        C  0.34581740  0.70645748  0.04224009     0.22200
C869        C  0.36036002  0.71553875  0.04691707    -0.34100
C870        C  0.35843088  0.72708783  0.05998935     0.16300
O871        O  0.34417081  0.74039774  0.08000869    -0.26100
C872        C  0.36023545  0.74554896  0.07996938     0.06000
C873        C  0.36975406  0.73767662  0.06764348    -0.31000
O874        O  0.34459666  0.69603825  0.02959249    -0.22800
C875        C  0.32838698  0.69134606  0.02931442    -0.02800
C876        C  0.31905581  0.69896018  0.04195301    -0.17200
H877        H  0.31661348  0.72221044  0.06931636     0.20700
H878        H  0.37229808  0.71389356  0.04059710     0.19100
H879        H  0.38310527  0.73900942  0.06513809     0.19100
H880        H  0.30555084  0.69844345  0.04394301     0.14900
C881        C  0.33109549  0.75199215  0.18537759     0.30400
C882        C  0.34235190  0.76361211  0.17842178    -0.36000
C883        C  0.34352463  0.76342265  0.16110094     0.16400
C884        C  0.33410074  0.75268600  0.15143189     0.22200
C885        C  0.32293011  0.74115324  0.15834722    -0.34100
C886        C  0.32199284  0.74115579  0.17554209     0.16300
O887        O  0.32770648  0.74999277  0.20122979    -0.26100
C888        C  0.31648465  0.73760026  0.20135279     0.06000
C889        C  0.31258870  0.73156621  0.18575383    -0.31000
O890        O  0.33803102  0.75357844  0.13572025    -0.22800
C891        C  0.35021232  0.76493767  0.13518644    -0.02800
C892        C  0.35411523  0.77167049  0.15058567    -0.17200
H893        H  0.34986444  0.77194019  0.18595611     0.20700
H894        H  0.31581251  0.73245365  0.15084585     0.19100
H895        H  0.30355296  0.72199861  0.18239143     0.19100
H896        H  0.36411867  0.78032278  0.15370220     0.14900
C897        C  0.18379324  0.71608971  0.34295848     0.30400
C898        C  0.16707911  0.71170223  0.34653455    -0.36000
C899        C  0.16017462  0.71889174  0.36082424     0.16400
C900        C  0.16914154  0.72952091  0.37101313     0.22200
C901        C  0.18602806  0.73344398  0.36775200    -0.34100
C902        C  0.19286691  0.72641620  0.35336676     0.16300
O903        O  0.19170356  0.71318737  0.32890164    -0.26100
C904        C  0.20597940  0.72175205  0.33037967     0.06000
C905        C  0.20750802  0.72998919  0.34543496    -0.31000
O906        O  0.15958201  0.73658145  0.38239625    -0.22800
C907        C  0.14435337  0.73030045  0.37951067    -0.02800
C908        C  0.14398488  0.71912436  0.36633951    -0.17200
H909        H  0.15958526  0.70428723  0.33810358     0.20700
H910        H  0.19293206  0.74236538  0.37519514     0.19100
H911        H  0.21720531  0.73870318  0.34925460     0.19100
H912        H  0.13313623  0.71306808  0.36086775     0.14900
C913        C  0.16771247  0.67494437  0.24675470     0.30400
C914        C  0.15013399  0.67496455  0.24795483    -0.36000
C915        C  0.14191311  0.66195702  0.23977193     0.16400
C916        C  0.15034963  0.64972599  0.23089815     0.22200
C917        C  0.16801176  0.65002144  0.22923771    -0.34100
C918        C  0.17630048  0.66303928  0.23758913     0.16300
O919        O  0.17783615  0.68504340  0.25478714    -0.26100
C920        C  0.19316066  0.67967586  0.25073160     0.06000
C921        C  0.19307070  0.66610084  0.23990947    -0.31000
O922        O  0.14026957  0.63742614  0.22635895    -0.22800
C923        C  0.12528457  0.64197744  0.23238402    -0.02800
C924        C  0.12554573  0.65723514  0.24061075    -0.17200
H925        H  0.14339948  0.68393134  0.25557782     0.20700
H926        H  0.17485671  0.64023700  0.22277971     0.19100
H927        H  0.20374049  0.65918584  0.23499435     0.19100
H928        H  0.11548435  0.66315883  0.24759510     0.14900
C929        C  0.28219219  0.64789451  0.04252932     0.30400
C930        C  0.26790500  0.63843991  0.04732867    -0.36000
C931        C  0.26848206  0.63082019  0.06306766     0.16400
C932        C  0.28223747  0.63248814  0.07331583     0.22200
C933        C  0.29660584  0.64175608  0.06842283    -0.34100
C934        C  0.29599246  0.64941466  0.05271183     0.16300
O935        O  0.28429716  0.65585117  0.02832139    -0.26100
C936        C  0.29966821  0.66276964  0.02919238     0.06000
C937        C  0.30754964  0.65906111  0.04423344    -0.31000
O938        O  0.27974112  0.62541762  0.08790726    -0.22800
C939        C  0.26420935  0.61891227  0.08716227    -0.02800
C940        C  0.25661786  0.62179859  0.07184340    -0.17200
H941        H  0.25699901  0.63727625  0.03938950     0.20700
H942        H  0.30740314  0.64315193  0.07646539     0.19100
H943        H  0.32018977  0.66228972  0.04810330     0.19100
H944        H  0.24388555  0.61871777  0.06812308     0.14900
C945        C  0.27730460  0.64926298  0.19081370     0.30400
C946        C  0.28282570  0.64675599  0.17449059    -0.36000
C947        C  0.27461438  0.63405598  0.16566211     0.16400
C948        C  0.26197540  0.62438268  0.17253398     0.22200
C949        C  0.25674550  0.62660248  0.18894848    -0.34100
C950        C  0.26482001  0.63940262  0.19769964     0.16300
O951        O  0.28133995  0.66203467  0.20033919    -0.26100
C952        C  0.27137958  0.66029258  0.21350426     0.06000
C953        C  0.26094808  0.64632461  0.21259823    -0.31000
O954        O  0.25448914  0.61481556  0.16155949    -0.22800
C955        C  0.26240269  0.61834216  0.14746558    -0.02800
C956        C  0.27518308  0.63011302  0.14926350    -0.17200
H957        H  0.29199570  0.65493091  0.16871216     0.20700
H958        H  0.24627461  0.61964943  0.19414308     0.19100
H959        H  0.25081158  0.64279627  0.22089897     0.19100
H960        H  0.28276688  0.63590671  0.13969365     0.14900
C961        C  0.33616022  0.80961811  0.28100202     0.30400
C962        C  0.33725343  0.82659734  0.28544010    -0.36000
C963        C  0.35069680  0.83553942  0.27842820     0.16400
C964        C  0.36237800  0.82813417  0.26802181     0.22200
C965        C  0.36158106  0.81108691  0.26399789    -0.34100
C966        C  0.34802213  0.80222592  0.27077915     0.16300
O967        O  0.32314003  0.79977926  0.28375693    -0.26100
C968        C  0.32672894  0.78593702  0.27524331     0.06000
C969        C  0.34216966  0.78665232  0.26710501    -0.31000
O970        O  0.37267850  0.83907606  0.26130019    -0.22800
C971        C  0.36761064  0.85370193  0.26743708    -0.02800
C972        C  0.35404278  0.85231671  0.27830108    -0.17200
H973        H  0.32758962  0.83268511  0.29279614     0.20700
H974        H  0.37021292  0.80543421  0.25521141     0.19100
H975        H  0.34739684  0.77777494  0.25834559     0.19100
H976        H  0.34705662  0.86226508  0.28434957     0.14900
C977        C  0.23758104  0.81394258  0.33256747     0.30400
C978        C  0.22997142  0.81955801  0.34727012    -0.36000
C979        C  0.23346692  0.83618242  0.35178479     0.16400
C980        C  0.24367947  0.84652478  0.34242065     0.22200
C981        C  0.25100680  0.84102622  0.32762419    -0.34100
C982        C  0.24758292  0.82444856  0.32316578     0.16300
O983        O  0.23734385  0.79848826  0.32675366    -0.26100
C984        C  0.24731626  0.79919374  0.31349202     0.06000
C985        C  0.25388107  0.81506525  0.31058907    -0.31000
O986        O  0.24606549  0.86124269  0.34933471    -0.22800
C987        C  0.23720317  0.86043035  0.36327902    -0.02800
C988        C  0.22902770  0.84515294  0.36547513    -0.17200
H989        H  0.22238600  0.81136807  0.35494940     0.20700
H990        H  0.25930807  0.84894730  0.32039137     0.19100
H991        H  0.26278249  0.81888798  0.30113105     0.19100
H992        H  0.22134988  0.84111934  0.37582951     0.14900
C993        C  0.06977705  0.71043703  0.37137120     0.30400
C994        C  0.06508678  0.69686674  0.36118708    -0.36000
C995        C  0.04863392  0.69727021  0.35468084     0.16400
C996        C  0.03757110  0.71013012  0.35813684     0.22200
C997        C  0.04221190  0.72365872  0.36848079    -0.34100
C998        C  0.05873545  0.72331603  0.37493810     0.16300
O999        O  0.08492449  0.71307687  0.37752367    -0.26100
C1000       C  0.08384036  0.72781843  0.38530864     0.06000
C1001       C  0.06768015  0.73478226  0.38422675    -0.31000
O1002       O  0.02283386  0.70802380  0.35081472    -0.22800
C1003       C  0.02424192  0.69360918  0.34239565    -0.02800
C1004       C  0.04020943  0.68636755  0.34442690    -0.17200
H1005       H  0.07384843  0.68685758  0.35822760     0.20700
H1006       H  0.03359943  0.73389235  0.37107720     0.19100
H1007       H  0.06350327  0.74695814  0.38852504     0.19100
H1008       H  0.04485361  0.67457598  0.33960724     0.14900
C1009       C  0.05499072  0.63335448  0.27768217     0.30400
C1010       C  0.04503892  0.63107969  0.29208688    -0.36000
C1011       C  0.03874593  0.64578984  0.29986676     0.16400
C1012       C  0.04192374  0.66166686  0.29390680     0.22200
C1013       C  0.05176273  0.66392744  0.27955889    -0.34100
C1014       C  0.05796461  0.64930182  0.27181265     0.16300
O1015       O  0.06294570  0.62155796  0.26879870    -0.26100
C1016       C  0.07100905  0.63015407  0.25693994     0.06000
C1017       C  0.06811143  0.64741403  0.25834547    -0.31000
O1018       O  0.03363414  0.67355447  0.30214363    -0.22800
C1019       C  0.02502373  0.66535998  0.31383539    -0.02800
C1020       C  0.02783950  0.64800439  0.31289773    -0.17200
H1021       H  0.04230401  0.61870493  0.29687923     0.20700
H1022       H  0.05423410  0.67629172  0.27458766     0.19100
H1023       H  0.07366005  0.65735999  0.25101782     0.19100
H1024       H  0.02136309  0.63828586  0.31975862     0.14900
C1025       C  0.71188220  0.65169488  0.19377341     0.30400
C1026       C  0.72185743  0.63841959  0.18804501    -0.36000
C1027       C  0.71981024  0.63418726  0.17141791     0.16400
C1028       C  0.70852783  0.64229161  0.16113535     0.22200
C1029       C  0.69803133  0.65516574  0.16705248    -0.34100
C1030       C  0.70021573  0.65955331  0.18369574     0.16300
O1031       O  0.71426684  0.65974349  0.20772448    -0.26100
C1032       C  0.70389986  0.67280422  0.20672467     0.06000
C1033       C  0.69456358  0.67320915  0.19219325    -0.31000
O1034       O  0.71039912  0.63786676  0.14554005    -0.22800
C1035       C  0.72297742  0.62678094  0.14592562    -0.02800
C1036       C  0.72921436  0.62389850  0.16170498    -0.17200
H1037       H  0.73159374  0.63278396  0.19562671     0.20700
H1038       H  0.68975963  0.66217158  0.15892754     0.19100
H1039       H  0.68655162  0.68322726  0.18766828     0.19100
H1040       H  0.73990246  0.61624243  0.16531105     0.14900
C1041       C  0.64024747  0.77071908  0.15479857     0.30400
C1042       C  0.64166565  0.77615576  0.17122589    -0.36000
C1043       C  0.65211944  0.76640578  0.18139247     0.16400
C1044       C  0.66046867  0.75228181  0.17575395     0.22200
C1045       C  0.65931154  0.74706175  0.15932763    -0.34100
C1046       C  0.64901084  0.75683989  0.14918337     0.16300
O1047       O  0.63008403  0.77697200  0.14347750    -0.26100
C1048       C  0.63261752  0.76704926  0.13048726     0.06000
C1049       C  0.64436948  0.75443662  0.13328363    -0.31000
O1050       O  0.66897521  0.74460604  0.18743419    -0.22800
C1051       C  0.66618921  0.75396943  0.20071904    -0.02800
C1052       C  0.65585333  0.76776965  0.19775282    -0.17200
H1053       H  0.63474733  0.78690414  0.17585735     0.20700
H1054       H  0.66566520  0.73590062  0.15487203     0.19100
H1055       H  0.64802755  0.74425442  0.12516564     0.19100
H1056       H  0.65158857  0.77723832  0.20640641     0.14900
C1057       C  0.92316115  0.65126496  0.27483250     0.30400
C1058       C  0.92765456  0.66547082  0.28421011    -0.36000
C1059       C  0.94164406  0.66370092  0.29474843     0.16400
C1060       C  0.95062499  0.64894202  0.29585156     0.22200
C1061       C  0.94618510  0.63472335  0.28638699    -0.34100
C1062       C  0.93213343  0.63647802  0.27584716     0.16300
O1063       O  0.91029385  0.65020292  0.26457229    -0.26100
C1064       C  0.91085016  0.63455091  0.25872138     0.06000
C1065       C  0.92432125  0.62537953  0.26527526    -0.31000
O1066       O  0.96379294  0.65029913  0.30574792    -0.22800
C1067       C  0.96334720  0.66612022  0.31126893    -0.02800
C1068       C  0.94970682  0.67505027  0.30476194    -0.17200
H1069       H  0.92071895  0.67714219  0.28329389     0.20700
H1070       H  0.95331037  0.62314868  0.28708849     0.19100
H1071       H  0.92757137  0.61239652  0.26299217     0.19100
H1072       H  0.94684476  0.68824507  0.30618371     0.14900
C1073       C  0.83732420  0.66229014  0.24383057     0.30400
C1074       C  0.82866536  0.67482732  0.25250454    -0.36000
C1075       C  0.81168310  0.67700612  0.24829019     0.16400
C1076       C  0.80376907  0.66771508  0.23617416     0.22200
C1077       C  0.81246129  0.65517747  0.22744982    -0.34100
C1078       C  0.82941927  0.65283215  0.23183623     0.16300
O1079       O  0.85295929  0.65742146  0.24655122    -0.26100
C1080       C  0.85510197  0.64466850  0.23619205     0.06000
C1081       C  0.84089551  0.64123495  0.22670952    -0.31000
O1082       O  0.78761394  0.67148964  0.23474567    -0.22800
C1083       C  0.78520101  0.68316571  0.24625271    -0.02800
C1084       C  0.79971601  0.68711601  0.25501063    -0.17200
H1085       H  0.83460526  0.68200807  0.26223402     0.20700
H1086       H  0.80631167  0.64746817  0.21825664     0.19100
H1087       H  0.83909494  0.63124583  0.21783178     0.19100
H1088       H  0.80113538  0.69594901  0.26507332     0.14900
C1089       C  0.92164068  0.72589912  0.36475819     0.30400
C1090       C  0.93785575  0.72835323  0.35785213    -0.36000
C1091       C  0.94545627  0.71434426  0.35002247     0.16400
C1092       C  0.93777153  0.69889724  0.34900274     0.22200
C1093       C  0.92153235  0.69647892  0.35577423    -0.34100
C1094       C  0.91394532  0.71046045  0.36358528     0.16300
O1095       O  0.91194954  0.73731027  0.37231786    -0.26100
C1096       C  0.89779135  0.72901329  0.37609376     0.06000
C1097       C  0.89849255  0.71230813  0.37084592    -0.31000
O1098       O  0.94749469  0.68736226  0.34175918    -0.22800
C1099       C  0.96172946  0.69549480  0.33794873    -0.02800
C1100       C  0.96094691  0.71237482  0.34277607    -0.17200
H1101       H  0.94416470  0.74035217  0.35855324     0.20700
H1102       H  0.91524156  0.68446853  0.35509698     0.19100
H1103       H  0.88866475  0.70294024  0.37175505     0.19100
H1104       H  0.97068362  0.72180302  0.34161329     0.14900
C1105       C  0.78732818  0.72144958  0.34906511     0.30400
C1106       C  0.79343052  0.73052305  0.36258546    -0.36000
C1107       C  0.81012870  0.72718165  0.36714328     0.16400
C1108       C  0.82012969  0.71552855  0.35910827     0.22200
C1109       C  0.81375458  0.70588561  0.34603340    -0.34100
C1110       C  0.79707387  0.70938328  0.34131126     0.16300
O1111       O  0.77350534  0.72503799  0.34079287    -0.26100
C1112       C  0.77424739  0.71505464  0.32766623     0.06000
C1113       C  0.78848097  0.70479525  0.32746143    -0.31000
O1114       O  0.83609955  0.71639720  0.36364298    -0.22800
C1115       C  0.83625122  0.72869908  0.37474945    -0.02800
C1116       C  0.82041029  0.73569767  0.37755959    -0.17200
H1117       H  0.78620074  0.74058900  0.36816330     0.20700
H1118       H  0.82170199  0.69734314  0.33909176     0.19100
H1119       H  0.79286722  0.69675769  0.31754860     0.19100
H1120       H  0.81721822  0.74646763  0.38510654     0.14900
C1121       C  0.63234631  0.80417933  0.27626415     0.30400
C1122       C  0.61819670  0.81070555  0.26814309    -0.36000
C1123       C  0.61286410  0.82660703  0.27329916     0.16400
C1124       C  0.62091458  0.83555942  0.28557289     0.22200
C1125       C  0.63474912  0.82877512  0.29408542    -0.34100
C1126       C  0.64007187  0.81281334  0.28895645     0.16300
O1127       O  0.64081887  0.79068616  0.27183507    -0.26100
C1128       C  0.65397514  0.79048291  0.28200124     0.06000
C1129       C  0.65410397  0.80384724  0.29303749    -0.31000
O1130       O  0.61549596  0.85118368  0.28655460    -0.22800
C1131       C  0.60375176  0.85214605  0.27486342    -0.02800
C1132       C  0.60141974  0.83715512  0.26641250    -0.17200
H1133       H  0.61246957  0.80434273  0.25775379     0.20700
H1134       H  0.64159412  0.83590417  0.30326252     0.19100
H1135       H  0.66392024  0.80727809  0.30168511     0.19100
H1136       H  0.59365784  0.83487233  0.25564144     0.14900
C1137       C  0.74445639  0.81348319  0.33596523     0.30400
C1138       C  0.75527917  0.82226363  0.34656524    -0.36000
C1139       C  0.74977788  0.83828686  0.35127428     0.16400
C1140       C  0.73481536  0.84518964  0.34569343     0.22200
C1141       C  0.72405689  0.83645739  0.33515182    -0.34100
C1142       C  0.72941286  0.82043034  0.33067407     0.16300
O1143       O  0.74676308  0.79817470  0.33026728    -0.26100
C1144       C  0.73294716  0.79539273  0.32137365     0.06000
C1145       C  0.72171817  0.80876557  0.32122447    -0.31000
O1146       O  0.73159378  0.85985278  0.35228616    -0.22800
C1147       C  0.74453100  0.86238492  0.36234303    -0.02800
C1148       C  0.75633612  0.84944735  0.36223817    -0.17200
H1149       H  0.76692170  0.81683649  0.35112866     0.20700
H1150       H  0.71210262  0.84163330  0.33109401     0.19100
H1151       H  0.70966760  0.80975216  0.31498659     0.19100
H1152       H  0.76759476  0.84812420  0.36970193     0.14900
C1153       C  0.68451554  0.95693500  0.36203507     0.30400
C1154       C  0.69338515  0.95186475  0.37637542    -0.36000
C1155       C  0.70253408  0.93671136  0.37526692     0.16400
C1156       C  0.70259685  0.92726370  0.36101188     0.22200
C1157       C  0.69373803  0.93228596  0.34676289    -0.34100
C1158       C  0.68480527  0.94746249  0.34781311     0.16300
O1159       O  0.67653484  0.97132588  0.35987875    -0.26100
C1160       C  0.67153282  0.97122314  0.34406669     0.06000
C1161       C  0.67644258  0.95656025  0.33595398    -0.31000
O1162       O  0.71235331  0.91396939  0.36220741    -0.22800
C1163       C  0.71891382  0.91466474  0.37737654    -0.02800
C1164       C  0.71321670  0.92864219  0.38620182    -0.17200
H1165       H  0.69363367  0.95953702  0.38741378     0.20700
H1166       H  0.69426801  0.92508853  0.33542091     0.19100
H1167       H  0.67536434  0.95362302  0.32293539     0.19100
H1168       H  0.71663324  0.93244870  0.39859247     0.14900
C1169       C  0.63378712  0.94963681  0.30890632     0.30400
C1170       C  0.62731252  0.93322839  0.31013469    -0.36000
C1171       C  0.61818063  0.92716939  0.29637167     0.16400
C1172       C  0.61548555  0.93643039  0.28221378     0.22200
C1173       C  0.62213399  0.95279726  0.28092810    -0.34100
C1174       C  0.63132597  0.95883912  0.29469602     0.16300
O1175       O  0.64224150  0.95805154  0.32048156    -0.26100
C1176       C  0.64548706  0.97296737  0.31360109     0.06000
C1177       C  0.63903843  0.97385557  0.29743173    -0.31000
O1178       O  0.60693743  0.92796847  0.27068306    -0.22800
C1179       C  0.60407020  0.91299640  0.27760315    -0.02800
C1180       C  0.61085279  0.91201061  0.29356632    -0.17200
H1181       H  0.62923039  0.92566316  0.32109420     0.20700
H1182       H  0.62032429  0.96032982  0.26992914     0.19100
H1183       H  0.63966603  0.98420294  0.28879430     0.19100
H1184       H  0.61091595  0.90129706  0.30180095     0.14900
C1185       C  0.69333818  0.04550466  0.36066466     0.30400
C1186       C  0.70688820  0.04931737  0.37138699    -0.36000
C1187       C  0.70908432  0.06634310  0.37564053     0.16400
C1188       C  0.69871266  0.07876307  0.36954001     0.22200
C1189       C  0.68494057  0.07488919  0.35908777    -0.34100
C1190       C  0.68269580  0.05783434  0.35492698     0.16300
O1191       O  0.68941546  0.03051972  0.35479346    -0.26100
C1192       C  0.67595191  0.03294838  0.34504228     0.06000
C1193       C  0.67114291  0.04989465  0.34489827    -0.31000
O1194       O  0.70419397  0.09396279  0.37337098    -0.22800
C1195       C  0.71809799  0.09145439  0.38244978    -0.02800
C1196       C  0.72166877  0.07438355  0.38429812    -0.17200
H1197       H  0.71544455  0.03967929  0.37575676     0.20700
H1198       H  0.67686987  0.08460801  0.35406134     0.19100
H1199       H  0.66054727  0.05566153  0.33869078     0.19100
H1200       H  0.73285857  0.06878699  0.38965912     0.14900
C1201       C  0.76570110  0.16640392  0.31321157     0.30400
C1202       C  0.77057540  0.16430369  0.32976687    -0.36000
C1203       C  0.76010132  0.15405067  0.33944775     0.16400
C1204       C  0.74585559  0.14638140  0.33323100     0.22200
C1205       C  0.74084759  0.14868568  0.31678050    -0.34100
C1206       C  0.75129076  0.15892991  0.30713219     0.16300
O1207       O  0.77383018  0.17508414  0.30182140    -0.26100
C1208       C  0.76443339  0.17317972  0.28833043     0.06000
C1209       C  0.75023014  0.16330951  0.29092779    -0.31000
O1210       O  0.73847143  0.13654330  0.34412384    -0.22800
C1211       C  0.74802197  0.13797785  0.35754799    -0.02800
C1212       C  0.76160732  0.14880401  0.35542063    -0.17200
H1213       H  0.78189717  0.17000695  0.33466883     0.20700
H1214       H  0.72976601  0.14263042  0.31176184     0.19100
H1215       H  0.74059694  0.15979950  0.28211436     0.19100
H1216       H  0.77150977  0.15179408  0.36413222     0.14900
C1217       C  0.63478604  0.04842425  0.29783279     0.30400
C1218       C  0.62137846  0.05412427  0.28770800    -0.36000
C1219       C  0.62544848  0.06639090  0.27576840     0.16400
C1220       C  0.64164971  0.07240925  0.27408718     0.22200
C1221       C  0.65497658  0.06669893  0.28408893    -0.34100
C1222       C  0.65090888  0.05457463  0.29598310     0.16300
O1223       O  0.63414023  0.03615548  0.30881246    -0.26100
C1224       C  0.65000675  0.03448643  0.31428285     0.06000
C1225       C  0.66099579  0.04564322  0.30655350    -0.31000
O1226       O  0.64298758  0.08347075  0.26213219    -0.22800
C1227       C  0.62750109  0.08486094  0.25582433    -0.02800
C1228       C  0.61591527  0.07442358  0.26382329    -0.17200
H1229       H  0.60876185  0.04906430  0.28882679     0.20700
H1230       H  0.66775280  0.07120692  0.28246612     0.19100
H1231       H  0.67461482  0.04611378  0.30752463     0.19100
H1232       H  0.60262626  0.07286103  0.26117499     0.14900
C1233       C  0.70573824  0.14640584  0.21566015     0.30400
C1234       C  0.69803508  0.13314635  0.22401872    -0.36000
C1235       C  0.68113466  0.13026627  0.22007442     0.16400
C1236       C  0.67226478  0.13972343  0.20870276     0.22200
C1237       C  0.68010215  0.15283627  0.20005096    -0.34100
C1238       C  0.69712217  0.15568141  0.20394279     0.16300
O1239       O  0.72074450  0.15254133  0.21897690    -0.26100
C1240       C  0.72191473  0.16574256  0.20905809     0.06000
C1241       C  0.70769028  0.16822446  0.19927458    -0.31000
O1242       O  0.65615589  0.13551104  0.20798691    -0.22800
C1243       C  0.65488088  0.12316712  0.21900092    -0.02800
C1244       C  0.67002898  0.11939711  0.22680697    -0.17200
H1245       H  0.70452290  0.12608376  0.23352106     0.20700
H1246       H  0.67325475  0.16069506  0.19143946     0.19100
H1247       H  0.70490983  0.17868999  0.19118071     0.19100
H1248       H  0.67237600  0.11035457  0.23653504     0.14900
C1249       C  0.78678077  0.29845798  0.14184137     0.30400
C1250       C  0.77583173  0.30573919  0.13033469    -0.36000
C1251       C  0.77881887  0.32258199  0.12659127     0.16400
C1252       C  0.79175413  0.33170545  0.13358389     0.22200
C1253       C  0.80302955  0.32426451  0.14479737    -0.34100
C1254       C  0.80000786  0.30735560  0.14861671     0.16300
O1255       O  0.78444436  0.28391111  0.14911660    -0.26100
C1256       C  0.79638558  0.28331392  0.16061113     0.06000
C1257       C  0.80666753  0.29743620  0.16070863    -0.31000
O1258       O  0.79110724  0.34773364  0.12951666    -0.22800
C1259       C  0.77764638  0.34875946  0.11973670    -0.02800
C1260       C  0.76958297  0.33348781  0.11745258    -0.17200
H1261       H  0.76502585  0.29906508  0.12550145     0.20700
H1262       H  0.81280312  0.33142027  0.15088488     0.19100
H1263       H  0.81615266  0.30080787  0.16972280     0.19100
H1264       H  0.75808388  0.33095779  0.11068676     0.14900
C1265       C  0.66701227  0.25517708  0.14856682     0.30400
C1266       C  0.68266560  0.26283262  0.15136180    -0.36000
C1267       C  0.69403327  0.25375953  0.16115373     0.16400
C1268       C  0.69018976  0.23825911  0.16776520     0.22200
C1269       C  0.67438194  0.23081805  0.16535389    -0.34100
C1270       C  0.66302149  0.23988397  0.15556403     0.16300
O1271       O  0.65529303  0.26052295  0.13832276    -0.26100
C1272       C  0.64355235  0.24865020  0.13897600     0.06000
C1273       C  0.64757213  0.23556923  0.14962600    -0.31000
O1274       O  0.70306889  0.23143380  0.17549281    -0.22800
C1275       C  0.71530358  0.24270421  0.17387457    -0.02800
C1276       C  0.71040550  0.25693989  0.16518168    -0.17200
H1277       H  0.68602008  0.27466403  0.14567942     0.20700
H1278       H  0.67141286  0.21851081  0.17020002     0.19100
H1279       H  0.64074183  0.22400342  0.15165339     0.19100
H1280       H  0.71793461  0.26776246  0.16191274     0.14900
C1281       C  0.86675487  0.21610274  0.33198404     0.30400
C1282       C  0.85550753  0.20531794  0.32390844    -0.36000
C1283       C  0.85372014  0.20783565  0.30682027     0.16400
C1284       C  0.86237547  0.22015699  0.29830468     0.22200
C1285       C  0.87401540  0.23051768  0.30625526    -0.34100
C1286       C  0.87574749  0.22802776  0.32327946     0.16300
O1287       O  0.86899568  0.21730026  0.34812122    -0.26100
C1288       C  0.87962649  0.23009314  0.34964409     0.06000
C1289       C  0.88430693  0.23713253  0.33459347    -0.31000
O1290       O  0.85657506  0.22244234  0.28324001    -0.22800
C1291       C  0.84420428  0.21131457  0.28195776    -0.02800
C1292       C  0.84205559  0.20165321  0.29614194    -0.17200
H1293       H  0.84785091  0.19637465  0.33063466     0.20700
H1294       H  0.88034105  0.24065312  0.29984617     0.19100
H1295       H  0.89220155  0.24797883  0.33237610     0.19100
H1296       H  0.83192883  0.19299261  0.29892064     0.14900
C1297       C  0.84587238  0.31095915  0.25170818     0.30400
C1298       C  0.85390850  0.32094293  0.26354968    -0.36000
C1299       C  0.85656374  0.33769462  0.25905040     0.16400
C1300       C  0.85143111  0.34422833  0.24404836     0.22200
C1301       C  0.84339334  0.33425762  0.23222984    -0.34100
C1302       C  0.84097716  0.31746946  0.23662605     0.16300
O1303       O  0.84226316  0.29491437  0.25319433    -0.26100
C1304       C  0.83511282  0.29113180  0.23881961     0.06000
C1305       C  0.83401408  0.30465315  0.22802275    -0.31000
O1306       O  0.85607283  0.35991815  0.24201896    -0.22800
C1307       C  0.86439577  0.36342895  0.25582275    -0.02800
C1308       C  0.86507859  0.35011497  0.26690495    -0.17200
H1309       H  0.85812055  0.31591857  0.27528180     0.20700
H1310       H  0.83967613  0.33914425  0.22027828     0.19100
H1311       H  0.82855144  0.30504048  0.21576226     0.19100
H1312       H  0.87166000  0.34943699  0.27860746     0.14900
C1313       C  0.71590039  0.36244575  0.07568865     0.30400
C1314       C  0.70467062  0.34941280  0.07170331    -0.36000
C1315       C  0.69628689  0.35070255  0.05646883     0.16400
C1316       C  0.69881132  0.36390147  0.04581781     0.22200
C1317       C  0.70999609  0.37711340  0.04988009    -0.34100
C1318       C  0.71840996  0.37586830  0.06524025     0.16300
O1319       O  0.72609397  0.36268819  0.08853408    -0.26100
C1320       C  0.73533056  0.37653790  0.08669033     0.06000
C1321       C  0.73103231  0.38537368  0.07234832    -0.31000
O1322       O  0.69067883  0.36181807  0.03166568    -0.22800
C1323       C  0.68266503  0.34708264  0.03316031    -0.02800
C1324       C  0.68579926  0.33970916  0.04854579    -0.17200
H1325       H  0.70310116  0.33862368  0.07967783     0.20700
H1326       H  0.71244520  0.38731155  0.04137825     0.19100
H1327       H  0.73723885  0.39627186  0.06719641     0.19100
H1328       H  0.68202297  0.32760161  0.05310309     0.14900
C1329       C  0.63838912  0.27621799  0.06904116     0.30400
C1330       C  0.65301667  0.28083118  0.06028507    -0.36000
C1331       C  0.65216253  0.29581918  0.05122161     0.16400
C1332       C  0.63782435  0.30559712  0.05058679     0.22200
C1333       C  0.62304904  0.30089477  0.05931208    -0.34100
C1334       C  0.62392450  0.28584287  0.06853853     0.16300
O1335       O  0.63720035  0.26361130  0.07952440    -0.26100
C1336       C  0.62167421  0.26475711  0.08586210     0.06000
C1337       C  0.61275190  0.27841444  0.07939652    -0.31000
O1338       O  0.63966214  0.31863884  0.04053254    -0.22800
C1339       C  0.65557893  0.31747902  0.03501118    -0.02800
C1340       C  0.66374880  0.30328163  0.04111201    -0.17200
H1341       H  0.66444280  0.27336251  0.06076706     0.20700
H1342       H  0.61171727  0.30849898  0.05902730     0.19100
H1343       H  0.60062578  0.28321452  0.08341027     0.19100
H1344       H  0.67605256  0.29849496  0.03760271     0.14900
C1345       C  0.95585448  0.30638715  0.36443965     0.30400
C1346       C  0.95063535  0.29638597  0.37802352    -0.36000
C1347       C  0.93489474  0.28819487  0.37654123     0.16400
C1348       C  0.92515102  0.28984597  0.36255301     0.22200
C1349       C  0.93031615  0.29984556  0.34907037    -0.34100
C1350       C  0.94595150  0.30800331  0.35057774     0.16300
O1351       O  0.97056846  0.31406620  0.36269929    -0.26100
C1352       C  0.97020852  0.32087655  0.34753023     0.06000
C1353       C  0.95503772  0.31739083  0.33944567    -0.31000
O1354       O  0.91179455  0.28003146  0.36286832    -0.22800
C1355       C  0.91258022  0.27185856  0.37728920    -0.02800
C1356       C  0.92678081  0.27652190  0.38644388    -0.17200
H1357       H  0.95859637  0.29462618  0.38874155     0.20700
H1358       H  0.92290739  0.30067430  0.33786747     0.19100
H1359       H  0.95156074  0.32024688  0.32683084     0.19100
H1360       H  0.93124816  0.27110329  0.39789980     0.14900
C1361       C  0.95007862  0.36252345  0.31133851     0.30400
C1362       C  0.93668460  0.37433249  0.31191055    -0.36000
C1363       C  0.93004192  0.37974960  0.29652423     0.16400
C1364       C  0.93607579  0.37385420  0.28163785     0.22200
C1365       C  0.94928578  0.36199627  0.28107100    -0.34100
C1366       C  0.95591314  0.35665159  0.29635598     0.16300
O1367       O  0.95889729  0.35645102  0.32405698    -0.26100
C1368       C  0.97047443  0.34639071  0.31709721     0.06000
C1369       C  0.96901601  0.34609835  0.29988197    -0.31000
O1370       O  0.92721883  0.37939494  0.26883867    -0.22800
C1371       C  0.91536289  0.38939306  0.27532355    -0.02800
C1372       C  0.91651745  0.38986680  0.29261742    -0.17200
H1373       H  0.93177694  0.37899183  0.32353643     0.20700
H1374       H  0.95400261  0.35712103  0.26945054     0.19100
H1375       H  0.97723103  0.33981454  0.29112591     0.19100
H1376       H  0.90754486  0.39535250  0.30117299     0.14900
C1377       C  0.05700467  0.35694304  0.31368302     0.30400
C1378       C  0.07338523  0.36355101  0.31570277    -0.36000
C1379       C  0.08079722  0.37111850  0.30163678     0.16400
C1380       C  0.07269812  0.37227053  0.28659309     0.22200
C1381       C  0.05640197  0.36558360  0.28456924    -0.34100
C1382       C  0.04906149  0.35792818  0.29857157     0.16300
O1383       O  0.04743273  0.34970815  0.32521723    -0.26100
C1384       C  0.03309261  0.34591038  0.31736294     0.06000
C1385       C  0.03365734  0.35067732  0.30069928    -0.31000
O1386       O  0.08212056  0.37953094  0.27499457    -0.22800
C1387       C  0.09657268  0.38306370  0.28266925    -0.02800
C1388       C  0.09636432  0.37805794  0.29925760    -0.17200
H1389       H  0.07992933  0.36283817  0.32741966     0.20700
H1390       H  0.04987626  0.36623990  0.27283699     0.19100
H1391       H  0.02391166  0.34936109  0.29143439     0.19100
H1392       H  0.10648451  0.37896964  0.30818480     0.14900
C1393       C  0.20927578  0.36226995  0.28666887     0.30400
C1394       C  0.20156377  0.37423223  0.27651539    -0.36000
C1395       C  0.18481015  0.37819984  0.28039525     0.16400
C1396       C  0.17615769  0.37093789  0.29339418     0.22200
C1397       C  0.18406872  0.35932384  0.30389166    -0.34100
C1398       C  0.20087868  0.35532281  0.29999996     0.16300
O1399       O  0.22378171  0.35482238  0.28361924    -0.26100
C1400       C  0.22486337  0.34311299  0.29526130     0.06000
C1401       C  0.21107530  0.34295473  0.30595079    -0.31000
O1402       O  0.15993121  0.37477337  0.29332320    -0.22800
C1403       C  0.15827936  0.38468290  0.28017604    -0.02800
C1404       C  0.17338385  0.38737389  0.27180423    -0.17200
H1405       H  0.20778867  0.37918819  0.26562411     0.20700
H1406       H  0.17725402  0.35299368  0.31368867     0.19100
H1407       H  0.20811749  0.33382018  0.31543489     0.19100
H1408       H  0.17538635  0.39403943  0.26029286     0.14900
C1409       C  0.07387872  0.28501712  0.36357001     0.30400
C1410       C  0.06779397  0.29202046  0.34868458    -0.36000
C1411       C  0.05429311  0.30348561  0.35004251     0.16400
C1412       C  0.04717378  0.30763987  0.36505460     0.22200
C1413       C  0.05326591  0.30061393  0.37996383    -0.34100
C1414       C  0.06677915  0.28911560  0.37861171     0.16300
O1415       O  0.08683740  0.27464960  0.36510061    -0.26100
C1416       C  0.08807855  0.27172774  0.38133046     0.06000
C1417       C  0.07581138  0.28039895  0.39038016    -0.31000
O1418       O  0.03399682  0.31776959  0.36341469    -0.22800
C1419       C  0.03268258  0.32047046  0.34712994    -0.02800
C1420       C  0.04508343  0.31183052  0.33821871    -0.17200
H1421       H  0.07324323  0.28873585  0.33681865     0.20700
H1422       H  0.04772046  0.30378519  0.39181411     0.19100
H1423       H  0.07438438  0.28097952  0.40368617     0.19100
H1424       H  0.04635749  0.31085066  0.32491918     0.14900
C1425       C  0.19916721  0.25806294  0.35342484     0.30400
C1426       C  0.19028223  0.24865083  0.36517802    -0.36000
C1427       C  0.17349320  0.25349202  0.36788157     0.16400
C1428       C  0.16588120  0.26656901  0.35949831     0.22200
C1429       C  0.17480504  0.27606184  0.34783090    -0.34100
C1430       C  0.19164910  0.27133596  0.34525871     0.16300
O1431       O  0.21498677  0.25571173  0.34889396    -0.26100
C1432       C  0.21763695  0.26775726  0.33783281     0.06000
C1433       C  0.20359765  0.27787542  0.33510012    -0.31000
O1434       O  0.15005765  0.26891131  0.36403056    -0.22800
C1435       C  0.14758696  0.25725289  0.37553427    -0.02800
C1436       C  0.16172510  0.24732612  0.37846469    -0.17200
H1437       H  0.19606711  0.23833317  0.37179661     0.20700
H1438       H  0.16905598  0.28645390  0.34129243     0.19100
H1439       H  0.20234450  0.28836813  0.32667918     0.19100
H1440       H  0.16313510  0.23713356  0.38721000     0.14900
C1441       C  0.28985627  0.17129538  0.37034731     0.30400
C1442       C  0.30016525  0.17813565  0.35789336    -0.36000
C1443       C  0.29831414  0.19542952  0.35502182     0.16400
C1444       C  0.28704526  0.20525859  0.36378479     0.22200
C1445       C  0.27710781  0.19851926  0.37650081    -0.34100
C1446       C  0.27893269  0.18128684  0.37933269     0.16300
O1447       O  0.28815750  0.15521369  0.37391245    -0.26100
C1448       C  0.27602958  0.15497384  0.38535585     0.06000
C1449       C  0.26993746  0.17085249  0.38927258    -0.31000
O1450       O  0.28536447  0.22039104  0.35744386    -0.22800
C1451       C  0.29586228  0.22044030  0.34458214    -0.02800
C1452       C  0.30443403  0.20529093  0.34259454    -0.17200
H1453       H  0.30830606  0.17035730  0.35031951     0.20700
H1454       H  0.26779044  0.20598315  0.38300974     0.19100
H1455       H  0.25969899  0.17413378  0.39756780     0.19100
H1456       H  0.31244122  0.20149181  0.33238462     0.14900
C1457       C  0.36081647  0.16639954  0.25036866     0.30400
C1458       C  0.36013220  0.18336136  0.24595888    -0.36000
C1459       C  0.34875067  0.19319933  0.25500629     0.16400
C1460       C  0.33889373  0.18684509  0.26765149     0.22200
C1461       C  0.33944600  0.16986393  0.27194031    -0.34100
C1462       C  0.35067385  0.15999692  0.26276575     0.16300
O1463       O  0.37100725  0.15503641  0.24401418    -0.26100
C1464       C  0.36718989  0.14119864  0.25236794     0.06000
C1465       C  0.35456734  0.14350061  0.26411350    -0.31000
O1466       O  0.32934131  0.19835643  0.27462363    -0.22800
C1467       C  0.33300505  0.21216915  0.26618631    -0.02800
C1468       C  0.34495695  0.20975458  0.25381820    -0.17200
H1469       H  0.36799856  0.18853738  0.23627123     0.20700
H1470       H  0.33175592  0.16473770  0.28179037     0.19100
H1471       H  0.34952393  0.13449562  0.27283260     0.19100
H1472       H  0.35008968  0.21887727  0.24527130     0.14900
C1473       C  0.34954126  0.28973852  0.19487757     0.30400
C1474       C  0.35101238  0.29399430  0.17806633    -0.36000
C1475       C  0.36109739  0.28330044  0.16839135     0.16400
C1476       C  0.36936560  0.26955528  0.17491789     0.22200
C1477       C  0.36815204  0.26548291  0.19172213    -0.34100
C1478       C  0.35792235  0.27601389  0.20131544     0.16300
O1479       O  0.33887006  0.29643969  0.20557034    -0.26100
C1480       C  0.34046771  0.28688499  0.21899120     0.06000
C1481       C  0.35228608  0.27409984  0.21707676    -0.31000
O1482       O  0.37701034  0.26051215  0.16354121    -0.22800
C1483       C  0.37360467  0.26847359  0.14948541    -0.02800
C1484       C  0.36378088  0.28279951  0.15171176    -0.17200
H1485       H  0.34397094  0.30429856  0.17271559     0.20700
H1486       H  0.37399970  0.25431516  0.19676911     0.19100
H1487       H  0.35503069  0.26386879  0.22547298     0.19100
H1488       H  0.35884576  0.29121030  0.14237771     0.14900
C1489       C  0.24224620  0.35728222  0.17163499     0.30400
C1490       C  0.23757350  0.35521260  0.18826818    -0.36000
C1491       C  0.24859391  0.34550391  0.19793690     0.16400
C1492       C  0.26325997  0.33850173  0.19171393     0.22200
C1493       C  0.26787313  0.34051797  0.17512961    -0.34100
C1494       C  0.25677416  0.34998700  0.16544610     0.16300
O1495       O  0.23398965  0.36596209  0.16032041    -0.26100
C1496       C  0.24330152  0.36394008  0.14673589     0.06000
C1497       C  0.25755969  0.35408692  0.14920599    -0.31000
O1498       O  0.27161742  0.32975318  0.20283077    -0.22800
C1499       C  0.26215277  0.33105226  0.21635160    -0.02800
C1500       C  0.24766814  0.34071321  0.21406862    -0.17200
H1501       H  0.22613970  0.36068844  0.19328437     0.20700
H1502       H  0.27925476  0.33496315  0.17008863     0.19100
H1503       H  0.26732165  0.35079125  0.14038478     0.19100
H1504       H  0.23782303  0.34358840  0.22294364     0.14900
C1505       C  0.35245091  0.92948248  0.28188213     0.30400
C1506       C  0.33749957  0.93559865  0.28931709    -0.36000
C1507       C  0.33930062  0.94889128  0.30063859    -0.00400
C1508       C  0.35478533  0.95572584  0.30431069     0.22200
C1509       C  0.36974647  0.94968604  0.29678250    -0.34100
C1510       C  0.36794465  0.93640662  0.28539889     0.16300
O1511       O  0.35370717  0.91631332  0.27202293    -0.26100
C1512       C  0.37019861  0.91480319  0.26875296     0.06000
C1513       C  0.37969576  0.92707518  0.27677445    -0.31000
O1514       O  0.35352899  0.96848823  0.31469855    -0.22800
C1515       C  0.33700623  0.96989490  0.31799185    -0.02800
C1516       C  0.32755031  0.95794907  0.30946214    -0.17200
H1517       H  0.32529952  0.93020183  0.28660326     0.20700
H1518       H  0.38196374  0.95496792  0.29964221     0.19100
H1519       H  0.39330479  0.92803137  0.27739893     0.19100
H1520       H  0.31395109  0.95681087  0.30895680     0.14900
C1521       C  0.28442581  0.95840616  0.35377982     0.30400
C1522       C  0.26869080  0.95488252  0.36118161    -0.36000
C1523       C  0.26677423  0.93884440  0.36817951     0.16400
C1524       C  0.27938321  0.92693197  0.36754245     0.22200
C1525       C  0.29521697  0.93051001  0.36020123    -0.34100
C1526       C  0.29723873  0.94671623  0.35343984     0.16300
O1527       O  0.28899942  0.97287715  0.34728209    -0.26100
C1528       C  0.30507023  0.97076718  0.34260837     0.06000
C1529       C  0.31088174  0.95456811  0.34619305    -0.31000
O1530       O  0.27444473  0.91236889  0.37375730    -0.22800
C1531       C  0.25860191  0.91503563  0.37893513    -0.02800
C1532       C  0.25318462  0.93136228  0.37573003    -0.17200
H1533       H  0.25864690  0.96410105  0.36155152     0.20700
H1534       H  0.30524358  0.92127738  0.35976565     0.19100
H1535       H  0.32349584  0.94957875  0.34459978     0.19100
H1536       H  0.24066012  0.93653806  0.37746775     0.14900
C1537       C  0.29230312  0.04687545  0.36002445     0.30400
C1538       C  0.27773683  0.05268269  0.36846202    -0.36000
C1539       C  0.27857632  0.06896531  0.37525476     0.16400
C1540       C  0.29277461  0.07877767  0.37361528     0.22200
C1541       C  0.30735722  0.07288045  0.36541412    -0.34100
C1542       C  0.30655428  0.05661360  0.35876305     0.16300
O1543       O  0.29428807  0.03210673  0.35282718    -0.26100
C1544       C  0.31005639  0.03219409  0.34675036     0.06000
C1545       C  0.31833178  0.04720899  0.35036864    -0.31000
O1546       O  0.29069986  0.09387039  0.37998818    -0.22800
C1547       C  0.27503625  0.09391081  0.38612374    -0.02800
C1548       C  0.26684007  0.07862148  0.38359436    -0.17200
H1549       H  0.26650780  0.04506364  0.36955851     0.20700
H1550       H  0.31852496  0.08055731  0.36415498     0.19100
H1551       H  0.33127454  0.05059483  0.34775772     0.19100
H1552       H  0.25393321  0.07541212  0.38663854     0.14900
C1553       C  0.35871941  0.04399831  0.30593313     0.30400
C1554       C  0.37340724  0.04829420  0.29686703    -0.36000
C1555       C  0.37227214  0.06254800  0.28655556     0.16400
C1556       C  0.35767200  0.07191418  0.28553910     0.22200
C1557       C  0.34305921  0.06764423  0.29456150    -0.34100
C1558       C  0.34415613  0.05336923  0.30469161     0.16300
O1559       O  0.35658589  0.03051566  0.31524999    -0.26100
C1560       C  0.34044216  0.03117151  0.32021387     0.06000
C1561       C  0.33211171  0.04520184  0.31384679    -0.31000
O1562       O  0.35923244  0.08480587  0.27546951    -0.22800
C1563       C  0.37500426  0.08387956  0.26964640    -0.02800
C1564       C  0.38379242  0.07014794  0.27611213    -0.17200
H1565       H  0.38481463  0.04081347  0.29754461     0.20700
H1566       H  0.33150054  0.07485469  0.29353318     0.19100
H1567       H  0.31881911  0.04826962  0.31474487     0.19100
H1568       H  0.39681090  0.06662239  0.27391285     0.14900
C1569       C  0.35752183  0.28720134  0.07508138     0.30400
C1570       C  0.34851217  0.30163329  0.06997903    -0.36000
C1571       C  0.34123780  0.30115464  0.05407595     0.16400
C1572       C  0.34271799  0.28740866  0.04393628     0.22200
C1573       C  0.35186893  0.27298698  0.04898615    -0.34100
C1574       C  0.35924659  0.27348915  0.06489442     0.16300
O1575       O  0.36462853  0.28483152  0.08969557    -0.26100
C1576       C  0.37130731  0.26942036  0.08903459     0.06000
C1577       C  0.36839030  0.26174938  0.07374976    -0.31000
O1578       O  0.33518954  0.28973952  0.02948160    -0.22800
C1579       C  0.32862691  0.30525013  0.03017500    -0.02800
C1580       C  0.33219044  0.31294785  0.04533326    -0.17200
H1581       H  0.34718572  0.31240668  0.07788783     0.20700
H1582       H  0.35312657  0.26220849  0.04110920     0.19100
H1583       H  0.37171148  0.24917689  0.07004138     0.19100
H1584       H  0.32934390  0.32560237  0.04917003     0.14900
C1585       C  0.28826380  0.33882039  0.05275759     0.30400
C1586       C  0.27920254  0.33606956  0.06749070    -0.36000
C1587       C  0.27036658  0.34993854  0.07404488     0.16400
C1588       C  0.27026966  0.36556776  0.06672088     0.22200
C1589       C  0.27957130  0.36838885  0.05209059    -0.34100
C1590       C  0.28852705  0.35450795  0.04558739     0.16300
O1591       O  0.29638771  0.32733729  0.04383165    -0.26100
C1592       C  0.30222908  0.33576981  0.03075191     0.06000
C1593       C  0.29779613  0.35279985  0.03145442    -0.31000
O1594       O  0.26108124  0.37672356  0.07513471    -0.22800
C1595       C  0.25526440  0.36806648  0.08809435    -0.02800
C1596       C  0.26073346  0.35139124  0.08791241    -0.17200
H1597       H  0.27883048  0.32383842  0.07335075     0.20700
H1598       H  0.27969742  0.38052539  0.04607076     0.19100
H1599       H  0.30020647  0.36242497  0.02231227     0.19100
H1600       H  0.25824292  0.34172182  0.09701662     0.14900
C1601       C  0.03789587  0.35538525  0.71026458     0.30400
C1602       C  0.04244296  0.36886416  0.72066962    -0.36000
C1603       C  0.05901824  0.36868774  0.72695659     0.16400
C1604       C  0.07029062  0.35609324  0.72308981     0.22200
C1605       C  0.06560456  0.34242299  0.71299758    -0.34100
C1606       C  0.04900750  0.34258878  0.70676473     0.16300
O1607       O  0.02320166  0.35332732  0.70287812    -0.26100
C1608       C  0.02459648  0.33895150  0.69440668     0.06000
C1609       C  0.04050903  0.33160494  0.69663448    -0.31000
O1610       O  0.08552331  0.35906923  0.72898524    -0.22800
C1611       C  0.08413574  0.37366086  0.73700862    -0.02800
C1612       C  0.06778625  0.38019068  0.73629019    -0.17200
H1613       H  0.03373361  0.37897609  0.72339720     0.20700
H1614       H  0.07445779  0.33255433  0.70987156     0.19100
H1615       H  0.04509232  0.31970273  0.69205872     0.19100
H1616       H  0.06334748  0.39216761  0.74087184     0.14900
C1617       C  0.19705156  0.36576656  0.71722664     0.30400
C1618       C  0.18931575  0.37760405  0.72754767    -0.36000
C1619       C  0.17167610  0.37823311  0.72693787     0.16400
C1620       C  0.16221723  0.36802106  0.71678201     0.22200
C1621       C  0.16999749  0.35655806  0.70601139    -0.34100
C1622       C  0.18769799  0.35588126  0.70665302     0.16300
O1623       O  0.21294140  0.36098360  0.71813268    -0.26100
C1624       C  0.21391423  0.34806336  0.70780880     0.06000
C1625       C  0.19864838  0.34448534  0.70009594    -0.31000
O1626       O  0.14586068  0.36936547  0.71967320    -0.22800
C1627       C  0.14491328  0.38062289  0.73178105    -0.02800
C1628       C  0.16056869  0.38664843  0.73668371    -0.17200
H1629       H  0.19646344  0.38490565  0.73635333     0.20700
H1630       H  0.16273559  0.34797977  0.69851359     0.19100
H1631       H  0.19558486  0.33369385  0.69257283     0.19100
H1632       H  0.16339454  0.39527283  0.74662618     0.14900
C1633       C  0.06773745  0.29081678  0.63448425     0.30400
C1634       C  0.06339924  0.30601817  0.64239608    -0.36000
C1635       C  0.04777263  0.30636114  0.65075251     0.16400
C1636       C  0.03730021  0.29261413  0.65128663     0.22200
C1637       C  0.04143488  0.27759341  0.64307392    -0.34100
C1638       C  0.05692876  0.27729973  0.63459682     0.16300
O1639       O  0.08237358  0.28718009  0.62744733    -0.26100
C1640       C  0.08084190  0.27124289  0.62260972     0.06000
C1641       C  0.06514952  0.26450635  0.62660594    -0.31000
O1642       O  0.02332278  0.29554681  0.65966176    -0.22800
C1643       C  0.02460232  0.31143041  0.66471400    -0.02800
C1644       C  0.03959018  0.31888254  0.65931882    -0.17200
H1645       H  0.07179369  0.31669618  0.64234449     0.20700
H1646       H  0.03320488  0.26678710  0.64346162     0.19100
H1647       H  0.06106849  0.25162975  0.62532599     0.19100
H1648       H  0.04351101  0.33177882  0.66079305     0.14900
C1649       C  0.16491318  0.25506737  0.64003354     0.30400
C1650       C  0.18111510  0.24880016  0.64333998    -0.36000
C1651       C  0.19158005  0.25919471  0.65276713     0.16400
C1652       C  0.18646843  0.27471351  0.65848526     0.22200
C1653       C  0.17023100  0.28094443  0.65524490    -0.34100
C1654       C  0.15973316  0.27050840  0.64589687     0.16300
O1655       O  0.15315285  0.24752909  0.63131572    -0.26100
C1656       C  0.14024148  0.25821997  0.63168974     0.06000
C1657       C  0.14356977  0.27272296  0.64062579    -0.31000
O1658       O  0.19828942  0.28230844  0.66709460    -0.22800
C1659       C  0.21111974  0.27150361  0.66693748    -0.02800
C1660       C  0.20767355  0.25688895  0.65820710    -0.17200
H1661       H  0.18526547  0.23667129  0.63887037     0.20700
H1662       H  0.16607106  0.29306759  0.65972319     0.19100
H1663       H  0.13536931  0.28340534  0.64271268     0.19100
H1664       H  0.21579770  0.24612520  0.65625937     0.14900
C1665       C  0.33172420  0.19774428  0.73805964     0.30400
C1666       C  0.33063268  0.18060716  0.73450103    -0.36000
C1667       C  0.34094159  0.17009048  0.74397875     0.16400
C1668       C  0.35162730  0.17603756  0.75608899     0.22200
C1669       C  0.35249449  0.19316457  0.75986042    -0.34100
C1670       C  0.34214040  0.20368422  0.75040002     0.16300
O1671       O  0.32347744  0.20981063  0.73046189    -0.26100
C1672       C  0.32856632  0.22362773  0.73811602     0.06000
C1673       C  0.34012784  0.22062290  0.75068271    -0.31000
O1674       O  0.36107608  0.16412479  0.76251879    -0.22800
C1675       C  0.35629960  0.15039178  0.75448897    -0.02800
C1676       C  0.34370044  0.15330410  0.74290836    -0.17200
H1677       H  0.32257680  0.17585258  0.72479421     0.20700
H1678       H  0.36092714  0.19797702  0.76922976     0.19100
H1679       H  0.34612076  0.22959634  0.75879896     0.19100
H1680       H  0.33811767  0.14452242  0.73432311     0.14900
C1681       C  0.29639795  0.20584620  0.65015011     0.30400
C1682       C  0.30000816  0.18861258  0.64914261    -0.36000
C1683       C  0.29057849  0.17948414  0.63757349     0.16400
C1684       C  0.27872550  0.18693755  0.62743912     0.22200
C1685       C  0.27547636  0.20419079  0.62810248    -0.34100
C1686       C  0.28457641  0.21321848  0.63991164     0.16300
O1687       O  0.30121471  0.21595447  0.66213427    -0.26100
C1688       C  0.29228544  0.22988358  0.65960603     0.06000
C1689       C  0.28190010  0.22895975  0.64581352    -0.31000
O1690       O  0.26986373  0.17593147  0.61906168    -0.22800
C1691       C  0.27603567  0.16118851  0.62382950    -0.02800
C1692       C  0.28906179  0.16258869  0.63526893    -0.17200
H1693       H  0.30848989  0.18251667  0.65775140     0.20700
H1694       H  0.26550045  0.20991852  0.62089013     0.19100
H1695       H  0.27231580  0.23782207  0.64191473     0.19100
H1696       H  0.29560586  0.15263499  0.64174868     0.14900
C1697       C  0.26500897  0.35351435  0.92931866     0.30400
C1698       C  0.27262274  0.33833040  0.93441416    -0.36000
C1699       C  0.28315837  0.33911593  0.94841155     0.16400
C1700       C  0.28593341  0.35384952  0.95680621     0.22200
C1701       C  0.27819452  0.36903620  0.95179161    -0.34100
C1702       C  0.26758726  0.36824079  0.93780962     0.16300
O1703       O  0.25541055  0.35565833  0.91613065    -0.26100
C1704       C  0.25143227  0.37195372  0.91613966     0.06000
C1705       C  0.25862817  0.38044807  0.92947250    -0.31000
O1706       O  0.29569115  0.35166061  0.96990184    -0.22800
C1707       C  0.29947551  0.33528020  0.96997992    -0.02800
C1708       C  0.29187733  0.32684720  0.95681596    -0.17200
H1709       H  0.27052988  0.32674518  0.92787187     0.20700
H1710       H  0.28025431  0.38059404  0.95835108     0.19100
H1711       H  0.25814504  0.39370887  0.93207886     0.19100
H1712       H  0.29196028  0.31352965  0.95434340     0.14900
C1713       C  0.26022754  0.34873481  0.80982829     0.30400
C1714       C  0.26526562  0.34976580  0.82636742    -0.36000
C1715       C  0.25429908  0.35841149  0.83693780     0.16400
C1716       C  0.23954231  0.36586664  0.83156853     0.22200
C1717       C  0.23447414  0.36483423  0.81498008    -0.34100
C1718       C  0.24532638  0.35589848  0.80443666     0.16300
O1719       O  0.26821610  0.34053939  0.79806412    -0.26100
C1720       C  0.25827739  0.34232951  0.78497381     0.06000
C1721       C  0.24384777  0.35180542  0.78815404    -0.31000
O1722       O  0.23136461  0.37352456  0.84361256    -0.22800
C1723       C  0.24092136  0.37069563  0.85684699    -0.02800
C1724       C  0.25531595  0.36133044  0.85344352    -0.17200
H1725       H  0.27678881  0.34396080  0.83074498     0.20700
H1726       H  0.22279843  0.37038473  0.81066310     0.19100
H1727       H  0.23360443  0.35483417  0.77981813     0.19100
H1728       H  0.26526427  0.35758279  0.86183817     0.14900
C1729       C  0.33940756  0.28814328  0.95347436     0.30400
C1730       C  0.34787457  0.27380636  0.94716169    -0.36000
C1731       C  0.35575212  0.27552424  0.93152030     0.16400
C1732       C  0.35506828  0.29033903  0.92277401     0.22200
C1733       C  0.34663409  0.30457137  0.92904410    -0.34100
C1734       C  0.33890122  0.30288042  0.94462185     0.16300
O1735       O  0.33194784  0.28963404  0.96811493    -0.26100
C1736       C  0.32638651  0.30552615  0.96869131     0.06000
C1737       C  0.33052265  0.31432026  0.95430446    -0.31000
O1738       O  0.36282743  0.28932559  0.90835024    -0.22800
C1739       C  0.36890283  0.27370366  0.90759168    -0.02800
C1740       C  0.36487550  0.26445330  0.92178366    -0.17200
H1741       H  0.34844653  0.26218284  0.95406552     0.20700
H1742       H  0.34622290  0.31625885  0.92223099     0.19100
H1743       H  0.32853529  0.32748913  0.95167423     0.19100
H1744       H  0.36766341  0.25140052  0.92428389     0.14900
C1745       C  0.34606840  0.30339327  0.80545114     0.30400
C1746       C  0.34651691  0.30519171  0.82272299    -0.36000
C1747       C  0.35899313  0.29593814  0.83101996     0.16400
C1748       C  0.37039403  0.28574335  0.82286109     0.22200
C1749       C  0.37015147  0.28417609  0.80557188    -0.34100
C1750       C  0.35751473  0.29323692  0.79729926     0.16300
O1751       O  0.33396516  0.30888686  0.79562833    -0.26100
C1752       C  0.33761978  0.30213141  0.78099587     0.06000
C1753       C  0.35221601  0.29235320  0.78130321    -0.31000
O1754       O  0.37965510  0.27674464  0.83311511    -0.22800
C1755       C  0.37416598  0.28123784  0.84804888    -0.02800
C1756       C  0.36139543  0.29324435  0.84750123    -0.17200
H1757       H  0.33706466  0.31239846  0.82933080     0.20700
H1758       H  0.37849099  0.27559210  0.79912934     0.19100
H1759       H  0.35722673  0.28444215  0.77157131     0.19100
H1760       H  0.35411383  0.29830448  0.85769850     0.14900
C1761       C  0.36097720  0.06985613  0.72391991     0.30400
C1762       C  0.36402585  0.05459727  0.71554939    -0.36000
C1763       C  0.35050316  0.04800826  0.70617692     0.16400
C1764       C  0.33496157  0.05574440  0.70511774     0.22200
C1765       C  0.33196037  0.07103481  0.71333401    -0.34100
C1766       C  0.34546889  0.07764032  0.72261906     0.16300
O1767       O  0.37176009  0.07838487  0.73338206    -0.26100
C1768       C  0.36299846  0.09190827  0.73816519     0.06000
C1769       C  0.34661053  0.09193793  0.73173983    -0.31000
O1770       O  0.32388305  0.04697313  0.69633305    -0.22800
C1771       C  0.33242377  0.03336342  0.69145806    -0.02800
C1772       C  0.34910182  0.03353128  0.69724987    -0.17200
H1773       H  0.37607579  0.04821154  0.71636188     0.20700
H1774       H  0.31984000  0.07731503  0.71267132     0.19100
H1775       H  0.33687269  0.10134619  0.73343758     0.19100
H1776       H  0.35875343  0.02404891  0.69554991     0.14900
C1777       C  0.28943193  0.08385676  0.63844333     0.30400
C1778       C  0.30362791  0.07713210  0.64662064    -0.36000
C1779       C  0.30204778  0.06068829  0.65274581     0.16400
C1780       C  0.28747965  0.05150966  0.65091507     0.22200
C1781       C  0.27331818  0.05816661  0.64255224    -0.34100
C1782       C  0.27490595  0.07462553  0.63636959     0.16300
O1783       O  0.28803178  0.09919212  0.63241751    -0.26100
C1784       C  0.27246274  0.09992357  0.62615380     0.06000
C1785       C  0.26369575  0.08489429  0.62818690    -0.31000
O1786       O  0.28880831  0.03633994  0.65741253    -0.22800
C1787       C  0.30443645  0.03563538  0.66365586    -0.02800
C1788       C  0.31328710  0.05052559  0.66091515    -0.17200
H1789       H  0.31508584  0.08430348  0.64821505     0.20700
H1790       H  0.26184286  0.05101228  0.64101748     0.19100
H1791       H  0.25078266  0.08218192  0.62479174     0.19100
H1792       H  0.32630679  0.05329379  0.66382283     0.14900
C1793       C  0.15820809  0.72007371  0.63356575     0.30400
C1794       C  0.16659843  0.71010652  0.64526837    -0.36000
C1795       C  0.18382768  0.71351740  0.64751837     0.16400
C1796       C  0.19227235  0.72581928  0.63878428     0.22200
C1797       C  0.18401746  0.73540099  0.62673175    -0.34100
C1798       C  0.16679823  0.73209735  0.62460805     0.16300
O1799       O  0.14173556  0.72056619  0.63098989    -0.26100
C1800       C  0.13984358  0.73302545  0.62019067     0.06000
C1801       C  0.15502604  0.74053526  0.61573719    -0.31000
O1802       O  0.20739864  0.72892015  0.64482311    -0.22800
C1803       C  0.20872951  0.71844326  0.65755308    -0.02800
C1804       C  0.19454015  0.70836178  0.65962000    -0.17200
H1805       H  0.15990626  0.70118227  0.65294114     0.20700
H1806       H  0.19026072  0.74561346  0.62036983     0.19100
H1807       H  0.15697662  0.75138254  0.60789986     0.19100
H1808       H  0.19171986  0.69995765  0.66977545     0.14900
C1809       C  0.14469780  0.65276797  0.74341650     0.30400
C1810       C  0.15132964  0.66641049  0.73474796    -0.36000
C1811       C  0.16887741  0.66800747  0.73515732     0.16400
C1812       C  0.17928138  0.65703037  0.74357690     0.22200
C1813       C  0.17261759  0.64326715  0.75222277    -0.34100
C1814       C  0.15497978  0.64164598  0.75180405     0.16300
O1815       O  0.12864877  0.64878227  0.74434433    -0.26100
C1816       C  0.12856475  0.63495668  0.75348961     0.06000
C1817       C  0.14457368  0.62988494  0.75852966    -0.31000
O1818       O  0.19535937  0.66122021  0.74244614    -0.22800
C1819       C  0.19511646  0.67495984  0.73308933    -0.02800
C1820       C  0.17900279  0.67969923  0.72818392    -0.17200
H1821       H  0.14335936  0.67514225  0.72810116     0.20700
H1822       H  0.18058848  0.63448132  0.75879505     0.19100
H1823       H  0.14803367  0.61894660  0.76570617     0.19100
H1824       H  0.17528469  0.69038547  0.72076127     0.14900
C1825       C  0.26374886  0.93302759  0.64792136     0.30400
C1826       C  0.27394300  0.93734795  0.66152773    -0.36000
C1827       C  0.28378686  0.95189711  0.65988548     0.16400
C1828       C  0.28360299  0.96153808  0.64576984     0.22200
C1829       C  0.27325936  0.95726648  0.63212816    -0.34100
C1830       C  0.26332421  0.94265990  0.63378385     0.16300
O1831       O  0.25397322  0.91972487  0.64689485    -0.26100
C1832       C  0.24691068  0.92061023  0.63193676     0.06000
C1833       C  0.25222247  0.93477318  0.62316020    -0.31000
O1834       O  0.29335162  0.97493510  0.64714629    -0.22800
C1835       C  0.30008558  0.97392534  0.66232277    -0.02800
C1836       C  0.29432857  0.95980750  0.67083928    -0.17200
H1837       H  0.27415355  0.92984556  0.67267604     0.20700
H1838       H  0.27291564  0.96486701  0.62104783     0.19100
H1839       H  0.24887519  0.93841035  0.61069722     0.19100
H1840       H  0.29676267  0.95634087  0.68354798     0.14900
C1841       C  0.24166302  0.81122704  0.65776917     0.30400
C1842       C  0.22959211  0.81924348  0.64784387    -0.36000
C1843       C  0.23135559  0.83666940  0.64630209     0.16400
C1844       C  0.24410202  0.84550106  0.65398709     0.22200
C1845       C  0.25620359  0.83750789  0.66371821    -0.34100
C1846       C  0.25445813  0.82018716  0.66522083     0.16300
O1847       O  0.24201271  0.79519398  0.66176099    -0.26100
C1848       C  0.25522256  0.79405502  0.67182192     0.06000
C1849       C  0.26350101  0.80916005  0.67426317    -0.31000
O1850       O  0.24374918  0.86156385  0.65052252    -0.22800
C1851       C  0.23065743  0.86311320  0.64043801    -0.02800
C1852       C  0.22237544  0.84806723  0.63738478    -0.17200
H1853       H  0.21950104  0.81242762  0.64187817     0.20700
H1854       H  0.26626070  0.84433261  0.66973712     0.19100
H1855       H  0.27414618  0.81177743  0.68222823     0.19100
H1856       H  0.21181799  0.84577361  0.62922296     0.14900
C1857       C  0.35846787  0.92438021  0.70498893     0.30400
C1858       C  0.34837549  0.92975002  0.69153781    -0.36000
C1859       C  0.34214151  0.94635000  0.69219427     0.16400
C1860       C  0.34555431  0.95677614  0.70530034     0.22200
C1861       C  0.35579723  0.95149388  0.71861767    -0.34100
C1862       C  0.36215976  0.93499009  0.71790374     0.16300
O1863       O  0.36504857  0.90925587  0.70714202    -0.26100
C1864       C  0.37331700  0.91007130  0.72155001     0.06000
C1865       C  0.37199833  0.92592308  0.72876717    -0.31000
O1866       O  0.33872093  0.97178549  0.70345684    -0.22800
C1867       C  0.33069168  0.97134579  0.68890915    -0.02800
C1868       C  0.33259401  0.95567875  0.68125790    -0.17200
H1869       H  0.34553614  0.92150960  0.68128782     0.20700
H1870       H  0.35862815  0.95974667  0.72885976     0.19100
H1871       H  0.37690011  0.92995388  0.74059274     0.19100
H1872       H  0.32831312  0.95187547  0.66913893     0.14900
C1873       C  0.35848429  0.83120805  0.71328305     0.30400
C1874       C  0.34506009  0.82345165  0.70500689    -0.36000
C1875       C  0.34174808  0.80677323  0.70951349     0.16400
C1876       C  0.35105096  0.79827798  0.72129115     0.22200
C1877       C  0.36477634  0.80584641  0.72915811    -0.34100
C1878       C  0.36800263  0.82251086  0.72473847     0.16300
O1879       O  0.36235132  0.84730765  0.71271388    -0.26100
C1880       C  0.37456374  0.84883607  0.72388062     0.06000
C1881       C  0.37866196  0.83377898  0.73160005    -0.31000
O1882       O  0.34422565  0.78382744  0.72548412    -0.22800
C1883       C  0.33042840  0.78296974  0.71621170    -0.02800
C1884       C  0.32837348  0.79679343  0.70586665    -0.17200
H1885       H  0.33702810  0.83028570  0.69652707     0.20700
H1886       H  0.37168870  0.79958788  0.73891985     0.19100
H1887       H  0.38734307  0.83169853  0.74172645     0.19100
H1888       H  0.31768859  0.79981667  0.69807643     0.14900
C1889       C  0.28174408  0.65017926  0.95439090     0.30400
C1890       C  0.26738052  0.64097114  0.94948761    -0.36000
C1891       C  0.26756983  0.63434249  0.93333635     0.16400
C1892       C  0.28099791  0.63679534  0.92276024     0.22200
C1893       C  0.29544434  0.64585341  0.92772894    -0.34100
C1894       C  0.29526093  0.65242660  0.94390842     0.16300
O1895       O  0.28421718  0.65713642  0.96900429    -0.26100
C1896       C  0.29956696  0.66408395  0.96814537     0.06000
C1897       C  0.30706271  0.66142926  0.95266415    -0.31000
O1898       O  0.27817422  0.63049111  0.90791785    -0.22800
C1899       C  0.26278781  0.62365972  0.90885020    -0.02800
C1900       C  0.25559818  0.62559816  0.92451433    -0.17200
H1901       H  0.25673122  0.63918348  0.95770699     0.20700
H1902       H  0.30602245  0.64780778  0.91945291     0.19100
H1903       H  0.31960753  0.66489381  0.94862123     0.19100
H1904       H  0.24304944  0.62205735  0.92849654     0.14900
C1905       C  0.25976665  0.63068150  0.82342392     0.30400
C1906       C  0.25554063  0.63135572  0.80666444    -0.36000
C1907       C  0.26399018  0.64343518  0.79730536     0.16400
C1908       C  0.27583158  0.65413879  0.80398966     0.22200
C1909       C  0.28035472  0.65320438  0.82073918    -0.34100
C1910       C  0.27179342  0.64114471  0.83015261     0.16300
O1911       O  0.25218072  0.62144814  0.83460708    -0.26100
C1912       C  0.25942692  0.62592955  0.84871048     0.06000
C1913       C  0.27180343  0.63811958  0.84675961    -0.31000
O1914       O  0.28010537  0.66616474  0.79366432    -0.22800
C1915       C  0.27094864  0.66305106  0.78024119    -0.02800
C1916       C  0.26088954  0.64890653  0.78170674    -0.17200
H1917       H  0.24559370  0.62368551  0.80150937     0.20700
H1918       H  0.28909627  0.66198301  0.82625730     0.19100
H1919       H  0.27909504  0.64436658  0.85622988     0.19100
H1920       H  0.25124427  0.64451773  0.77329753     0.14900
C1921       C  0.34660318  0.70612764  0.95520278     0.30400
C1922       C  0.36150332  0.71411638  0.94950979    -0.36000
C1923       C  0.35965389  0.72559681  0.93628862     0.16400
C1924       C  0.34414145  0.72884344  0.92929996     0.22200
C1925       C  0.32932690  0.72095291  0.93501259    -0.34100
C1926       C  0.33118896  0.70946690  0.94807515     0.16300
O1927       O  0.34525974  0.69563434  0.96785790    -0.26100
C1928       C  0.32878730  0.69189774  0.96874849     0.06000
C1929       C  0.31945256  0.70028964  0.95668856    -0.31000
O1930       O  0.34512745  0.73936055  0.91674721    -0.22800
C1931       C  0.36147652  0.74321432  0.91544825    -0.02800
C1932       C  0.37120805  0.73503715  0.92744067    -0.17200
H1933       H  0.37367285  0.71158600  0.95504599     0.20700
H1934       H  0.31713843  0.72355797  0.92954876     0.19100
H1935       H  0.30587787  0.70048716  0.95519631     0.19100
H1936       H  0.38478117  0.73533269  0.92890673     0.14900
C1937       C  0.32606850  0.75469264  0.81024158     0.30400
C1938       C  0.33823272  0.76515223  0.81743957    -0.36000
C1939       C  0.34048040  0.76332699  0.83456175     0.16400
C1940       C  0.33125945  0.75212219  0.84395202     0.22200
C1941       C  0.31894926  0.74188880  0.83682225    -0.34100
C1942       C  0.31686507  0.74356878  0.81973200     0.16300
O1943       O  0.32253093  0.75352487  0.79433087    -0.26100
C1944       C  0.31097190  0.74145467  0.79372362     0.06000
C1945       C  0.30695150  0.73487805  0.80915635    -0.31000
O1946       O  0.33644701  0.75132346  0.85937555    -0.22800
C1947       C  0.34917475  0.76212925  0.85992533    -0.02800
C1948       C  0.35218470  0.77008796  0.84488489    -0.17200
H1949       H  0.34586463  0.77362572  0.81012014     0.20700
H1950       H  0.31198832  0.73273217  0.84398930     0.19100
H1951       H  0.29815168  0.72493889  0.81211288     0.19100
H1952       H  0.36222748  0.77871999  0.84176400     0.14900
C1953       C  0.67855911  0.11781858  0.79021686     0.30400
C1954       C  0.69570880  0.11907693  0.78623520    -0.36000
C1955       C  0.70498503  0.13065395  0.79544378     0.16400
C1956       C  0.69797291  0.14006246  0.80806891     0.22200
C1957       C  0.68094074  0.13822152  0.81255917    -0.34100
C1958       C  0.67151345  0.12698429  0.80298595     0.16300
O1959       O  0.66712137  0.11044791  0.78101733    -0.26100
C1960       C  0.65252977  0.11490662  0.78788522     0.06000
C1961       C  0.65445030  0.12502000  0.80175941    -0.31000
O1962       O  0.70777665  0.15259031  0.81253174    -0.22800
C1963       C  0.72112105  0.15122992  0.80259340    -0.02800
C1964       C  0.72020583  0.13761283  0.79194211    -0.17200
H1965       H  0.70099705  0.11286063  0.77550083     0.20700
H1966       H  0.67503136  0.14634626  0.82160853     0.19100
H1967       H  0.64471015  0.13132503  0.80883721     0.19100
H1968       H  0.72841477  0.13471486  0.78159602     0.14900
C1969       C  0.75850960  0.14736385  0.66816691     0.30400
C1970       C  0.77027606  0.15474242  0.67876136    -0.36000
C1971       C  0.76556741  0.15562256  0.69543271     0.16400
C1972       C  0.75027173  0.14985318  0.70135330     0.22200
C1973       C  0.73854455  0.14233587  0.69077653    -0.34100
C1974       C  0.74331012  0.14134949  0.67409641     0.16300
O1975       O  0.76064772  0.14445667  0.65224753    -0.26100
C1976       C  0.74665705  0.13641285  0.64797527     0.06000
C1977       C  0.73541075  0.13420485  0.66104200    -0.31000
O1978       O  0.74820132  0.15282773  0.71728260    -0.22800
C1979       C  0.76244220  0.16046530  0.72154492    -0.02800
C1980       C  0.77373082  0.16237938  0.70849202    -0.17200
H1981       H  0.78230562  0.15938155  0.67434329     0.20700
H1982       H  0.72656236  0.13759874  0.69521956     0.19100
H1983       H  0.72353219  0.12751047  0.66107407     0.19100
H1984       H  0.78584442  0.16864906  0.70846701     0.14900
C1985       C  0.94893884  0.29968443  0.64494963     0.30400
C1986       C  0.94384398  0.29058632  0.63072103    -0.36000
C1987       C  0.92889433  0.28097927  0.63216620     0.16400
C1988       C  0.91983557  0.28050684  0.64671419     0.22200
C1989       C  0.92488358  0.28954780  0.66080994    -0.34100
C1990       C  0.93965663  0.29911756  0.65934451     0.16300
O1991       O  0.96308181  0.30833888  0.64680990    -0.26100
C1992       C  0.96284244  0.31360698  0.66256962     0.06000
C1993       C  0.94847127  0.30808315  0.67092746    -0.31000
O1994       O  0.90716895  0.26988511  0.64611746    -0.22800
C1995       C  0.90765390  0.26325324  0.63096305    -0.02800
C1996       C  0.92102122  0.26976541  0.62158126    -0.17200
H1997       H  0.95133273  0.29055387  0.61950905     0.20700
H1998       H  0.91802296  0.28868746  0.67237046     0.19100
H1999       H  0.94553829  0.30937279  0.68394234     0.19100
H2000       H  0.92510323  0.26592937  0.60937376     0.14900
C2001       C  0.86172571  0.20586636  0.67398368     0.30400
C2002       C  0.84953911  0.19577401  0.68176254    -0.36000
C2003       C  0.84744954  0.19823342  0.69886672     0.16400
C2004       C  0.85664308  0.20990883  0.70764460     0.22200
C2005       C  0.86917144  0.21954453  0.70000677    -0.34100
C2006       C  0.87126436  0.21705814  0.68299755     0.16300
O2007       O  0.86437431  0.20721523  0.65787140    -0.26100
C2008       C  0.87584200  0.21934539  0.65667604     0.06000
C2009       C  0.88066141  0.22575744  0.67193891    -0.31000
O2010       O  0.85079026  0.21222902  0.72273040    -0.22800
C2011       C  0.83788474  0.20167413  0.72383085    -0.02800
C2012       C  0.83533874  0.19246337  0.70942567    -0.17200
H2013       H  0.84151297  0.18739453  0.67481366     0.20700
H2014       H  0.87600005  0.22915526  0.70663675     0.19100
H2015       H  0.88902951  0.23616132  0.67444742     0.19100
H2016       H  0.82488579  0.18426008  0.70653432     0.14900
C2017       C  0.91928513  0.37198985  0.71047437     0.30400
C2018       C  0.92426240  0.36410394  0.69558009    -0.36000
C2019       C  0.93961420  0.35511303  0.69594855     0.16400
C2020       C  0.94923491  0.35397882  0.71006556     0.22200
C2021       C  0.94439170  0.36199975  0.72482835    -0.34100
C2022       C  0.92921409  0.37112457  0.72440555     0.16300
O2023       O  0.90452126  0.37916319  0.71352079    -0.26100
C2024       C  0.90509380  0.38343228  0.72950549     0.06000
C2025       C  0.92028779  0.37873824  0.73683086    -0.31000
O2026       O  0.96315806  0.34521256  0.70778663    -0.22800
C2027       C  0.96274040  0.34051336  0.69194629    -0.02800
C2028       C  0.94826079  0.34638248  0.68392066    -0.17200
H2029       H  0.91648173  0.36457496  0.68460478     0.20700
H2030       H  0.95185644  0.36097864  0.73597682     0.19100
H2031       H  0.92331347  0.37875324  0.74987760     0.19100
H2032       H  0.94501824  0.34519676  0.67098252     0.14900
C2033       C  0.84149244  0.33581871  0.75985480     0.30400
C2034       C  0.83161930  0.32617453  0.77057791    -0.36000
C2035       C  0.83042225  0.30915536  0.76665823     0.16400
C2036       C  0.83820287  0.30208028  0.75302578     0.22200
C2037       C  0.84814148  0.31172756  0.74231733    -0.34100
C2038       C  0.84946043  0.32875512  0.74631927     0.16300
O2039       O  0.84519665  0.35176138  0.76177184    -0.26100
C2040       C  0.85568619  0.35493559  0.74933054     0.06000
C2041       C  0.85877119  0.34111700  0.73927700    -0.31000
O2042       O  0.83530544  0.28587175  0.75178102    -0.22800
C2043       C  0.82571185  0.28260440  0.76488821    -0.02800
C2044       C  0.82230505  0.29657791  0.77458954    -0.17200
H2045       H  0.82559433  0.33149318  0.78141064     0.20700
H2046       H  0.85460947  0.30629771  0.73178731     0.19100
H2047       H  0.86732335  0.34011969  0.72885232     0.19100
H2048       H  0.81477772  0.29735389  0.78576365     0.14900
C2049       C  0.63799378  0.30957349  0.95350644     0.30400
C2050       C  0.62853739  0.31008458  0.93869610    -0.36000
C2051       C  0.62222217  0.29458644  0.93284727     0.16400
C2052       C  0.62504912  0.27965155  0.94098316     0.22200
C2053       C  0.63453362  0.27913825  0.95563756    -0.34100
C2054       C  0.64083022  0.29451919  0.96141277     0.16300
O2055       O  0.64479208  0.32247827  0.96154316    -0.26100
C2056       C  0.65220944  0.31548446  0.97472218     0.06000
C2057       C  0.65013364  0.29811083  0.97506011    -0.31000
O2058       O  0.61942307  0.26649580  0.93269129    -0.22800
C2059       C  0.61252115  0.27289604  0.91904404    -0.02800
C2060       C  0.61408881  0.29036759  0.91847806    -0.17200
H2061       H  0.62641815  0.32169842  0.93208320     0.20700
H2062       H  0.63713685  0.26745283  0.96195687     0.19100
H2063       H  0.65440802  0.28939138  0.98443331     0.19100
H2064       H  0.61125009  0.29856526  0.90817364     0.14900
C2065       C  0.66546712  0.25060560  0.86387751     0.30400
C2066       C  0.68213676  0.25596821  0.86146947    -0.36000
C2067       C  0.69220999  0.24565856  0.85143995     0.16400
C2068       C  0.68633067  0.23102348  0.84439891     0.22200
C2069       C  0.66963197  0.22578523  0.84664015    -0.34100
C2070       C  0.65952723  0.23616486  0.85651163     0.16300
O2071       O  0.65399624  0.25793978  0.87325340    -0.26100
C2072       C  0.64052037  0.24816417  0.87165309     0.06000
C2073       C  0.64319905  0.23448982  0.86133166    -0.31000
O2074       O  0.69797390  0.22315809  0.83570800    -0.22800
C2075       C  0.71144901  0.23293032  0.83710344    -0.02800
C2076       C  0.70861436  0.24714626  0.84669210    -0.17200
H2077       H  0.68695014  0.26728743  0.86712827     0.20700
H2078       H  0.66487948  0.21435511  0.84115224     0.19100
H2079       H  0.63455721  0.22444621  0.85833574     0.19100
H2080       H  0.71737296  0.25708196  0.84971444     0.14900
C2081       C  0.70879633  0.35691259  0.92604216     0.30400
C2082       C  0.69827729  0.34398456  0.93192976    -0.36000
C2083       C  0.69088358  0.34645540  0.94756334     0.16400
C2084       C  0.69363759  0.36071793  0.95672904     0.22200
C2085       C  0.70406535  0.37374132  0.95077951    -0.34100
C2086       C  0.71147553  0.37128917  0.93510655     0.16300
O2087       O  0.71834573  0.35625298  0.91267391    -0.26100
C2088       C  0.72722483  0.37045557  0.91288914     0.06000
C2089       C  0.72337360  0.38041457  0.92657109    -0.31000
O2090       O  0.68662397  0.35984373  0.97154382    -0.22800
C2091       C  0.67911284  0.34483715  0.97204259    -0.02800
C2092       C  0.68148054  0.33594248  0.95732480    -0.17200
H2093       H  0.69659656  0.33244048  0.92510002     0.20700
H2094       H  0.70678165  0.38470876  0.95817871     0.19100
H2095       H  0.72954773  0.39183640  0.93046158     0.19100
H2096       H  0.67799786  0.32315995  0.95453458     0.14900
C2097       C  0.79332421  0.29922839  0.85425900     0.30400
C2098       C  0.79663784  0.31640970  0.85602461    -0.36000
C2099       C  0.78637880  0.32504579  0.86734759     0.16400
C2100       C  0.77393145  0.31724302  0.87651681     0.22200
C2101       C  0.77098611  0.30001537  0.87514413    -0.34100
C2102       C  0.78102061  0.29145152  0.86364664     0.16300
O2103       O  0.79901379  0.28954961  0.84224417    -0.26100
C2104       C  0.79020573  0.27547214  0.84396554     0.06000
C2105       C  0.77904379  0.27587363  0.85724446    -0.31000
O2106       O  0.76452040  0.32793293  0.88485377    -0.22800
C2107       C  0.77100980  0.34278360  0.88101949    -0.02800
C2108       C  0.78471515  0.34177631  0.87026574    -0.17200
H2109       H  0.80560233  0.32284708  0.84814843     0.20700
H2110       H  0.76067845  0.29396865  0.88161861     0.19100
H2111       H  0.76939655  0.26681177  0.86040373     0.19100
H2112       H  0.79176230  0.35193953  0.86468779     0.14900
C2113       C  0.03227416  0.64511301  0.70228555     0.30400
C2114       C  0.03782623  0.62987878  0.70942725    -0.36000
C2115       C  0.04999701  0.63113796  0.72207397     0.16400
C2116       C  0.05629422  0.64638776  0.72710908     0.22200
C2117       C  0.05080519  0.66155118  0.71995448    -0.34100
C2118       C  0.03867731  0.66029419  0.70737345     0.16300
O2119       O  0.01998779  0.64695626  0.69137804    -0.26100
C2120       C  0.01863651  0.66353485  0.68914804     0.06000
C2121       C  0.03003758  0.67243510  0.69884188    -0.31000
O2122       O  0.06815168  0.64480582  0.73841510    -0.22800
C2123       C  0.06950319  0.62833203  0.74102054    -0.02800
C2124       C  0.05841419  0.61913091  0.73117424    -0.17200
H2125       H  0.03281941  0.61790137  0.70554750     0.20700
H2126       H  0.05565355  0.67354263  0.72397861     0.19100
H2127       H  0.03074122  0.68587601  0.70052223     0.19100
H2128       H  0.05759234  0.60564274  0.72997092     0.14900
C2129       C  0.03208681  0.71114653  0.64901591     0.30400
C2130       C  0.03695203  0.72581928  0.64041277    -0.36000
C2131       C  0.05338232  0.72597491  0.63362168     0.16400
C2132       C  0.06423806  0.71257129  0.63534377     0.22200
C2133       C  0.05932965  0.69786324  0.64385492    -0.34100
C2134       C  0.04290220  0.69771491  0.65061870     0.16300
O2135       O  0.01722649  0.70828714  0.65594337    -0.26100
C2136       C  0.01830910  0.69279006  0.66225064     0.06000
C2137       C  0.03415776  0.68559870  0.65923302    -0.31000
O2138       O  0.07923375  0.71556266  0.62876007    -0.22800
C2139       C  0.07815448  0.73106454  0.62249424    -0.02800
C2140       C  0.06221262  0.73815631  0.62511428    -0.17200
H2141       H  0.02848522  0.73640973  0.63913314     0.20700
H2142       H  0.06781478  0.68729816  0.64521425     0.19100
H2143       H  0.03843095  0.67307527  0.66224558     0.19100
H2144       H  0.05801474  0.75067723  0.62195919     0.14900
C2145       C  0.68640359  0.05619193  0.64619556     0.30400
C2146       C  0.68596557  0.07060091  0.63596818    -0.36000
C2147       C  0.70160696  0.07612677  0.62941398     0.16400
C2148       C  0.71663949  0.06813659  0.63280392     0.22200
C2149       C  0.71710261  0.05391437  0.64311243    -0.34100
C2150       C  0.70155254  0.04839566  0.64958195     0.16300
O2151       O  0.67329309  0.04818941  0.65290441    -0.26100
C2152       C  0.68021200  0.03513667  0.66084121     0.06000
C2153       C  0.69777261  0.03486260  0.65918235    -0.31000
O2154       O  0.72989908  0.07620518  0.62673740    -0.22800
C2155       C  0.72349797  0.08954098  0.61892948    -0.02800
C2156       C  0.70587264  0.09009266  0.62039131    -0.17200
H2157       H  0.67425565  0.07708006  0.63330849     0.20700
H2158       H  0.72886238  0.04765490  0.64606583     0.19100
H2159       H  0.70644672  0.02535564  0.66359947     0.19100
H2160       H  0.69760043  0.10036491  0.61703122     0.14900
C2161       C  0.63865901  0.07994265  0.72118330     0.30400
C2162       C  0.65191111  0.07482694  0.71061446    -0.36000
C2163       C  0.64929061  0.06002481  0.70151487     0.16400
C2164       C  0.63459604  0.05092689  0.70279380     0.22200
C2165       C  0.62123812  0.05617071  0.71319166    -0.34100
C2166       C  0.62382900  0.07100744  0.72227023     0.16300
O2167       O  0.63935290  0.09216159  0.73216058    -0.26100
C2168       C  0.62469706  0.09137485  0.74034350     0.06000
C2169       C  0.61443635  0.07844173  0.73461585    -0.31000
O2170       O  0.63542461  0.03664174  0.69457223    -0.22800
C2171       C  0.65081979  0.03642442  0.68772254    -0.02800
C2172       C  0.66000182  0.05082312  0.69164079    -0.17200
H2173       H  0.66379777  0.08148229  0.71016456     0.20700
H2174       H  0.60992746  0.04873501  0.71470137     0.19100
H2175       H  0.60264101  0.07410806  0.73985228     0.19100
H2176       H  0.67307282  0.05354405  0.68883690     0.14900
C2177       C  0.63888273  0.70741386  0.03752214     0.30400
C2178       C  0.62405011  0.71664142  0.04143325    -0.36000
C2179       C  0.62464200  0.72689681  0.05568432     0.16400
C2180       C  0.63890483  0.72772336  0.06533453     0.22200
C2181       C  0.65365400  0.71853379  0.06145257    -0.34100
C2182       C  0.65308816  0.70842513  0.04721708     0.16300
O2183       O  0.64145118  0.69805735  0.02422419    -0.26100
C2184       C  0.65752931  0.69281588  0.02527119     0.06000
C2185       C  0.66537563  0.69902433  0.03945739    -0.31000
O2186       O  0.63702881  0.73800008  0.07795980    -0.22800
C2187       C  0.62136213  0.74416314  0.07667401    -0.02800
C2188       C  0.61295719  0.73766200  0.06288962    -0.17200
H2189       H  0.61295480  0.71613223  0.03367772     0.20700
H2190       H  0.66493627  0.71946142  0.06890777     0.19100
H2191       H  0.67849777  0.69783058  0.04296021     0.19100
H2192       H  0.60020099  0.74029076  0.05887562     0.14900
C2193       C  0.70617014  0.63743003  0.07154539     0.30400
C2194       C  0.69127196  0.64530907  0.06591349    -0.36000
C2195       C  0.69212590  0.65330459  0.05040954     0.16400
C2196       C  0.70670398  0.65352900  0.04111652     0.22200
C2197       C  0.72163647  0.64557267  0.04673175    -0.34100
C2198       C  0.72075845  0.63745203  0.06223650     0.16300
O2199       O  0.70822200  0.62999311  0.08599445    -0.26100
C2200       C  0.72428727  0.62482551  0.08610661     0.06000
C2201       C  0.73275561  0.62910757  0.07151836    -0.31000
O2202       O  0.70454770  0.66121035  0.02675538    -0.22800
C2203       C  0.68836140  0.66616377  0.02670430    -0.02800
C2204       C  0.68002139  0.66144520  0.04122360    -0.17200
H2205       H  0.67978603  0.64525480  0.07319291     0.20700
H2206       H  0.73313163  0.64566466  0.03946539     0.19100
H2207       H  0.74599514  0.62734738  0.06863935     0.19100
H2208       H  0.66678116  0.66293105  0.04422245     0.14900
C2209       C  0.63446682  0.96042581  0.70543405     0.30400
C2210       C  0.62636611  0.95508979  0.72014734    -0.36000
C2211       C  0.62022433  0.93847611  0.72040217     0.16400
C2212       C  0.62205376  0.92791268  0.70704458     0.22200
C2213       C  0.62985195  0.93335370  0.69225263    -0.34100
C2214       C  0.63598126  0.94993244  0.69201581     0.16300
O2215       O  0.64143289  0.97525723  0.70270812    -0.26100
C2216       C  0.64768488  0.97444869  0.68730787     0.06000
C2217       C  0.64436862  0.95889998  0.68000274    -0.31000
O2218       O  0.61664951  0.91256917  0.71024428    -0.22800
C2219       C  0.61099258  0.91311959  0.72582972    -0.02800
C2220       C  0.61280454  0.92906674  0.73276682    -0.17200
H2221       H  0.62523873  0.96323707  0.73078153     0.20700
H2222       H  0.63141418  0.92506219  0.68177796     0.19100
H2223       H  0.64733259  0.95482154  0.66757905     0.19100
H2224       H  0.61008152  0.93287545  0.74533464     0.14900
C2225       C  0.62814144  0.83403847  0.71498103     0.30400
C2226       C  0.63885089  0.82585807  0.70368206    -0.36000
C2227       C  0.64042151  0.80840566  0.70565740     0.16400
C2228       C  0.63210701  0.79965519  0.71795627     0.22200
C2229       C  0.62122036  0.80775635  0.72902252    -0.34100
C2230       C  0.61967621  0.82511823  0.72704601     0.16300
O2231       O  0.62545042  0.85038543  0.71608847    -0.26100
C2232       C  0.61510556  0.85181311  0.72902368     0.06000
C2233       C  0.61113922  0.83649124  0.73626234    -0.31000
O2234       O  0.63712847  0.78394582  0.71906387    -0.22800
C2235       C  0.64868803  0.78247411  0.70721200    -0.02800
C2236       C  0.65110452  0.79724263  0.69831166    -0.17200
H2237       H  0.64598898  0.83268535  0.69446026     0.20700
H2238       H  0.61502682  0.80110748  0.73900146     0.19100
H2239       H  0.60331728  0.83410540  0.74700721     0.19100
H2240       H  0.66066411  0.79985355  0.68907719     0.14900
C2241       C  0.70846476  0.93041000  0.64221265     0.30400
C2242       C  0.70015194  0.93576280  0.65671715    -0.36000
C2243       C  0.69089162  0.95077714  0.65559920     0.16400
C2244       C  0.68992312  0.95987570  0.64115240     0.22200
C2245       C  0.69839161  0.95459443  0.62664852    -0.34100
C2246       C  0.70770970  0.93955618  0.62776663     0.16300
O2247       O  0.71725199  0.91646130  0.64049150    -0.26100
C2248       C  0.72243838  0.91651825  0.62476724     0.06000
C2249       C  0.71694278  0.93071768  0.61620563    -0.31000
O2250       O  0.68111618  0.97384441  0.64301825    -0.22800
C2251       C  0.67615716  0.97378548  0.65885544    -0.02800
C2252       C  0.68208116  0.95969258  0.66731177    -0.17200
H2253       H  0.70084834  0.92865533  0.66811357     0.20700
H2254       H  0.69780311  0.96177434  0.61529181     0.19100
H2255       H  0.71883085  0.93371655  0.60327554     0.19100
H2256       H  0.68093567  0.95690241  0.68036855     0.14900
C2257       C  0.72340064  0.81241062  0.66097989     0.30400
C2258       C  0.71837347  0.82922464  0.66016712    -0.36000
C2259       C  0.72692972  0.83907018  0.64856380     0.16400
C2260       C  0.73942099  0.83274968  0.63835100     0.22200
C2261       C  0.74458588  0.81598850  0.63929972    -0.34100
C2262       C  0.73616609  0.80619448  0.65103053     0.16300
O2263       O  0.71679066  0.80084810  0.67058060    -0.26100
C2264       C  0.72558764  0.78715670  0.66684780     0.06000
C2265       C  0.73786151  0.78970306  0.65483101    -0.31000
O2266       O  0.74514843  0.84398305  0.62787267    -0.22800
C2267       C  0.73633719  0.85768117  0.63155205    -0.02800
C2268       C  0.72485967  0.85543007  0.64436692    -0.17200
H2269       H  0.70836208  0.83421277  0.66787821     0.20700
H2270       H  0.75431878  0.81090123  0.63131431     0.19100
H2271       H  0.74643284  0.78063210  0.64941442     0.19100
H2272       H  0.71593080  0.86437007  0.64943072     0.14900
C2273       C  0.91000805  0.71864571  0.64295248     0.30400
C2274       C  0.91493403  0.71003431  0.65745120    -0.36000
C2275       C  0.93146348  0.70343860  0.65763510     0.16400
C2276       C  0.94222302  0.70511436  0.64435555     0.22200
C2277       C  0.93742068  0.71397043  0.63000305    -0.34100
C2278       C  0.92100692  0.72075674  0.62989147     0.16300
O2279       O  0.89488610  0.72489969  0.63978614    -0.26100
C2280       C  0.89619513  0.73148692  0.62463119     0.06000
C2281       C  0.91227068  0.72935263  0.61788429    -0.31000
O2282       O  0.95702829  0.69802108  0.64701929    -0.22800
C2283       C  0.95606846  0.69162101  0.66228621    -0.02800
C2284       C  0.94034559  0.69485365  0.66957913    -0.17200
H2285       H  0.90639082  0.70843216  0.66779371     0.20700
H2286       H  0.94590950  0.71539724  0.61959235     0.19100
H2287       H  0.91653853  0.73262381  0.60557685     0.19100
H2288       H  0.93622820  0.69205243  0.68203244     0.14900
C2289       C  0.79018176  0.70495073  0.64052683     0.30400
C2290       C  0.80726905  0.70064109  0.63854858    -0.36000
C2291       C  0.81667361  0.71092352  0.62790772     0.16400
C2292       C  0.80960184  0.72426003  0.61947865     0.22200
C2293       C  0.79247845  0.72834102  0.62116410    -0.34100
C2294       C  0.78319816  0.71833843  0.63210381     0.16300
O2295       O  0.77993129  0.69892250  0.65193121    -0.26100
C2296       C  0.76627145  0.70860799  0.65085524     0.06000
C2297       C  0.76756605  0.72082965  0.63864481    -0.31000
O2298       O  0.82097909  0.73352724  0.61196963    -0.22800
C2299       C  0.83555703  0.72617545  0.61570544    -0.02800
C2300       C  0.83368734  0.71192815  0.62545917    -0.17200
H2301       H  0.81312223  0.69085228  0.64584194     0.20700
H2302       H  0.78711265  0.73938957  0.61540996     0.19100
H2303       H  0.75898602  0.73111773  0.63616301     0.19100
H2304       H  0.84346961  0.70427113  0.63098350     0.14900
C2305       C  0.91373409  0.63543438  0.71446762     0.30400
C2306       C  0.91793788  0.64269398  0.69907395    -0.36000
C2307       C  0.93369024  0.65078809  0.69807126     0.16400
C2308       C  0.94442778  0.65173501  0.71139686     0.22200
C2309       C  0.94034696  0.64426231  0.72671426    -0.34100
C2310       C  0.92469228  0.63600210  0.72766554     0.16300
O2311       O  0.89928782  0.62816453  0.71834260    -0.26100
C2312       C  0.90101045  0.62363763  0.73415464     0.06000
C2313       C  0.91667289  0.62813106  0.74060409    -0.31000
O2314       O  0.95854762  0.65969658  0.70777851    -0.22800
C2315       C  0.95705228  0.66408043  0.69187635    -0.02800
C2316       C  0.94179784  0.65860776  0.68513557    -0.17200
H2317       H  0.90942592  0.64219263  0.68864300     0.20700
H2318       H  0.94880418  0.64489148  0.73718591     0.19100
H2319       H  0.92102725  0.62684480  0.75321947     0.19100
H2320       H  0.93759399  0.65956605  0.67245106     0.14900
C2321       C  0.78813158  0.64444953  0.73540094     0.30400
C2322       C  0.79701423  0.63529705  0.74731376    -0.36000
C2323       C  0.81380397  0.63154463  0.74342497     0.16400
C2324       C  0.82137920  0.63639986  0.72879255     0.22200
C2325       C  0.81235585  0.64524081  0.71666548    -0.34100
C2326       C  0.79552864  0.64908365  0.72060421     0.16300
O2327       O  0.77282887  0.65060240  0.73721068    -0.26100
C2328       C  0.77032150  0.65926607  0.72340468     0.06000
C2329       C  0.78393434  0.65865407  0.71249759    -0.31000
O2330       O  0.83755710  0.63250401  0.72829608    -0.22800
C2331       C  0.84024856  0.62497435  0.74274409    -0.02800
C2332       C  0.82591732  0.62394603  0.75261053    -0.17200
H2333       H  0.79142685  0.63193548  0.75907924     0.20700
H2334       H  0.81821845  0.64939571  0.70528071     0.19100
H2335       H  0.78540395  0.66507597  0.70078410     0.19100
H2336       H  0.82474847  0.61882862  0.76496260     0.14900
C2337       C  0.71510067  0.63568511  0.92392624     0.30400
C2338       C  0.71746903  0.63925295  0.94086182    -0.36000
C2339       C  0.70504913  0.64937428  0.94858280     0.16400
C2340       C  0.69117632  0.65556152  0.94033514     0.22200
C2341       C  0.68884020  0.65207236  0.92340901    -0.34100
C2342       C  0.70126068  0.64201913  0.91567949     0.16300
O2343       O  0.72514570  0.62657607  0.91416487    -0.26100
C2344       C  0.71762946  0.62710086  0.89938460     0.06000
C2345       C  0.70275381  0.63659025  0.89974458    -0.31000
O2346       O  0.68101645  0.66452457  0.95004943    -0.22800
C2347       C  0.68842064  0.66424467  0.96489907    -0.02800
C2348       C  0.70352868  0.65496246  0.96449545    -0.17200
H2349       H  0.72826525  0.63446431  0.94759535     0.20700
H2350       H  0.67803766  0.65686300  0.91668728     0.19100
H2351       H  0.69425051  0.63923534  0.88959859     0.19100
H2352       H  0.71232002  0.65249968  0.97442219     0.14900
C2353       C  0.71179447  0.62476915  0.81333648     0.30400
C2354       C  0.71504760  0.62531491  0.79630126    -0.36000
C2355       C  0.70441184  0.63566763  0.78695137     0.16400
C2356       C  0.69126641  0.64469543  0.79384823     0.22200
C2357       C  0.68772116  0.64377199  0.81086696    -0.34100
C2358       C  0.69860220  0.63366744  0.82029245     0.16300
O2359       O  0.72144667  0.61755209  0.82450959    -0.26100
C2360       C  0.71445504  0.62188515  0.83886451     0.06000
C2361       C  0.70012471  0.63185827  0.83702663    -0.31000
O2362       O  0.68490483  0.65579256  0.78346246    -0.22800
C2363       C  0.69409907  0.65389047  0.76977780    -0.02800
C2364       C  0.70624035  0.64133364  0.77118103    -0.17200
H2365       H  0.72592560  0.61911640  0.79091197     0.20700
H2366       H  0.67803545  0.65146334  0.81655390     0.19100
H2367       H  0.69247295  0.63757924  0.84660619     0.19100
H2368       H  0.71634741  0.63836544  0.76261711     0.14900
C2369       C  0.62991053  0.72491226  0.93062485     0.30400
C2370       C  0.62672226  0.71260011  0.94275257    -0.36000
C2371       C  0.64097141  0.70455577  0.94964402     0.16400
C2372       C  0.65730169  0.70836141  0.94506765     0.22200
C2373       C  0.66049021  0.72056430  0.93287198    -0.34100
C2374       C  0.64625588  0.72856373  0.92596114     0.16300
O2375       O  0.61849813  0.73358368  0.92206909    -0.26100
C2376       C  0.62769308  0.74298054  0.91177456     0.06000
C2377       C  0.64500640  0.74027098  0.91374058    -0.31000
O2378       O  0.66874111  0.70032632  0.95409812    -0.22800
C2379       C  0.65965702  0.69106010  0.96458846    -0.02800
C2380       C  0.64229696  0.69318774  0.96220342    -0.17200
H2381       H  0.61400698  0.70955195  0.94663729     0.20700
H2382       H  0.67321966  0.72377767  0.92915996     0.19100
H2383       H  0.65522058  0.74558837  0.90653802     0.19100
H2384       H  0.63212149  0.68812156  0.96962768     0.14900
C2385       C  0.63418750  0.75349004  0.82721970     0.30400
C2386       C  0.63268192  0.75641253  0.81022191    -0.36000
C2387       C  0.64206065  0.74573389  0.79998971     0.16400
C2388       C  0.65209618  0.73294078  0.80602839     0.22200
C2389       C  0.65363166  0.73004937  0.82305631    -0.34100
C2390       C  0.64439875  0.74086783  0.83331406     0.16300
O2391       O  0.62616260  0.76165910  0.83897604    -0.26100
C2392       C  0.63139448  0.75427342  0.85278359     0.06000
C2393       C  0.64284395  0.74131544  0.85005576    -0.31000
O2394       O  0.66025555  0.72491064  0.79422219    -0.22800
C2395       C  0.65546318  0.73277382  0.78050987    -0.02800
C2396       C  0.64411139  0.74578539  0.78332876    -0.17200
H2397       H  0.62482928  0.76636614  0.80533140     0.20700
H2398       H  0.66158971  0.72018700  0.82795634     0.19100
H2399       H  0.64853349  0.73296539  0.85902598     0.19100
H2400       H  0.63872079  0.75443242  0.77445276     0.14900
C2401       C  0.54003088  0.86661251  0.80735548     0.30400
C2402       C  0.54567102  0.88075961  0.79826785    -0.36000
C2403       C  0.56032218  0.87853152  0.78846778     0.16400
C2404       C  0.56870321  0.86338696  0.78792710     0.22200
C2405       C  0.56316719  0.84938666  0.79702357    -0.34100
C2406       C  0.54858697  0.85158599  0.80665929     0.16300
O2407       O  0.52576369  0.86533866  0.81584341    -0.26100
C2408       C  0.52514836  0.84930342  0.82080521     0.06000
C2409       C  0.53912462  0.84019183  0.81530622    -0.31000
O2410       O  0.58112016  0.86333595  0.77711292    -0.22800
C2411       C  0.58105955  0.87861964  0.77037241    -0.02800
C2412       C  0.56832616  0.88878423  0.77705196    -0.17200
H2413       H  0.53868037  0.89243169  0.79825496     0.20700
H2414       H  0.56940513  0.83733879  0.79603739     0.19100
H2415       H  0.54129034  0.82682119  0.81620337     0.19100
H2416       H  0.56476587  0.90132771  0.77330734     0.14900
C2417       C  0.54768499  0.81436582  0.85708677     0.30400
C2418       C  0.56433182  0.81570242  0.86322815    -0.36000
C2419       C  0.57099824  0.80139085  0.87132079     0.16400
C2420       C  0.56197235  0.78675750  0.87319151     0.22200
C2421       C  0.54551604  0.78535910  0.86685047    -0.34100
C2422       C  0.53890668  0.79958916  0.85879357     0.16300
O2423       O  0.53869433  0.82620577  0.84944434    -0.26100
C2424       C  0.52391810  0.81884660  0.84604294     0.06000
C2425       C  0.52365086  0.80217084  0.85150198    -0.31000
O2426       O  0.57102593  0.77447657  0.87984506    -0.22800
C2427       C  0.58614415  0.78123707  0.88260650    -0.02800
C2428       C  0.58679800  0.79795775  0.87734394    -0.17200
H2429       H  0.57165465  0.82703064  0.86165674     0.20700
H2430       H  0.53842442  0.77382005  0.86785802     0.19100
H2431       H  0.51355464  0.79312188  0.85047946     0.19100
H2432       H  0.59784211  0.80588279  0.87650443     0.14900
C2433       C  0.44710630  0.80068188  0.85526449     0.30400
C2434       C  0.44159423  0.78521871  0.86181142    -0.36000
C2435       C  0.42632770  0.78541317  0.87079575     0.16400
C2436       C  0.41694517  0.79981075  0.87292422     0.22200
C2437       C  0.42251652  0.81533669  0.86642374    -0.34100
C2438       C  0.43792549  0.81518021  0.85757293     0.16300
O2439       O  0.46132259  0.80331978  0.84706714    -0.26100
C2440       C  0.46145704  0.81977281  0.84382329     0.06000
C2441       C  0.44712093  0.82781045  0.85020249    -0.31000
O2442       O  0.40227109  0.79682067  0.88028707    -0.22800
C2443       C  0.40234322  0.78033823  0.88345330    -0.02800
C2444       C  0.41706371  0.77264213  0.87767366    -0.17200
H2445       H  0.44872200  0.77377555  0.85996514     0.20700
H2446       H  0.41521603  0.82671691  0.86797230     0.19100
H2447       H  0.44432189  0.84109841  0.85018275     0.19100
H2448       H  0.41972828  0.75934095  0.87701564     0.14900
C2449       C  0.45000931  0.86584041  0.80044743     0.30400
C2450       C  0.44565167  0.87907048  0.78949095    -0.36000
C2451       C  0.43035396  0.87732549  0.78064632     0.16400
C2452       C  0.42027282  0.86341391  0.78256919     0.22200
C2453       C  0.42465281  0.85025487  0.79339323    -0.34100
C2454       C  0.43981540  0.85202060  0.80218693     0.16300
O2455       O  0.46409189  0.86439155  0.80916203    -0.26100
C2456       C  0.46302062  0.84944047  0.81673317     0.06000
C2457       C  0.44807490  0.84118168  0.81260988    -0.31000
O2458       O  0.40728981  0.86347160  0.77242454    -0.22800
C2459       C  0.40862941  0.87765417  0.76373536    -0.02800
C2460       C  0.42286882  0.88690289  0.76835146    -0.17200
H2461       H  0.45385842  0.88974040  0.78765624     0.20700
H2462       H  0.41696037  0.83911381  0.79449482     0.19100
H2463       H  0.44424549  0.82858972  0.81581065     0.19100
H2464       H  0.42768200  0.89822928  0.76269397     0.14900
C2465       C  0.79410142  0.54704562  0.85935700     0.30400
C2466       C  0.78458608  0.55426078  0.87240803    -0.36000
C2467       C  0.77554039  0.56908876  0.86867749     0.16400
C2468       C  0.77589904  0.57612985  0.85311418     0.22200
C2469       C  0.78548905  0.56904577  0.84019351    -0.34100
C2470       C  0.79451751  0.55435199  0.84392861     0.16300
O2471       O  0.80234795  0.53256190  0.85967612    -0.26100
C2472       C  0.80839355  0.53061924  0.84430360     0.06000
C2473       C  0.80373262  0.54384942  0.83398096    -0.31000
O2474       O  0.76549330  0.58897266  0.85171532    -0.22800
C2475       C  0.75829197  0.59056038  0.86657511    -0.02800
C2476       C  0.76415684  0.57850674  0.87775696    -0.17200
H2477       H  0.78380268  0.54838191  0.88444936     0.20700
H2478       H  0.78539663  0.57431230  0.82785298     0.19100
H2479       H  0.80578365  0.54500802  0.82079207     0.19100
H2480       H  0.75981282  0.57625579  0.89025747     0.14900
C2481       C  0.84854291  0.55161577  0.81293517     0.30400
C2482       C  0.85289386  0.56879346  0.81280765    -0.36000
C2483       C  0.86194131  0.57458333  0.79879992     0.16400
C2484       C  0.86654963  0.56415974  0.78594507     0.22200
C2485       C  0.86213372  0.54714755  0.78605143    -0.34100
C2486       C  0.85294831  0.54149580  0.79982530     0.16300
O2487       O  0.83967928  0.54343848  0.82440598    -0.26100
C2488       C  0.83824582  0.52787065  0.81838875     0.06000
C2489       C  0.84618676  0.52625001  0.80300075    -0.31000
O2490       O  0.87324950  0.57233288  0.77329998    -0.22800
C2491       C  0.87315377  0.58834349  0.77795041    -0.02800
C2492       C  0.86611521  0.59044140  0.79371215    -0.17200
H2493       H  0.84899166  0.57717562  0.82262162     0.20700
H2494       H  0.86503789  0.53899127  0.77573052     0.19100
H2495       H  0.84677973  0.51540728  0.79498243     0.19100
H2496       H  0.86284207  0.60212157  0.79974222     0.14900
C2497       C  0.85240340  0.45187336  0.80663966     0.30400
C2498       C  0.86664458  0.44637213  0.79757428    -0.36000
C2499       C  0.86432562  0.43230818  0.78730582     0.16400
C2500       C  0.84904559  0.42415100  0.78630041     0.22200
C2501       C  0.83481524  0.42968432  0.79530004    -0.34100
C2502       C  0.83709574  0.44383456  0.80541496     0.16300
O2503       O  0.85146105  0.46549759  0.81587698    -0.26100
C2504       C  0.83533330  0.46637571  0.82079883     0.06000
C2505       C  0.82579766  0.45311721  0.81452710    -0.31000
O2506       O  0.84959671  0.41123367  0.77613264    -0.22800
C2507       C  0.86538252  0.41104209  0.77029217    -0.02800
C2508       C  0.87516447  0.42398004  0.77678258    -0.17200
H2509       H  0.87861164  0.45288044  0.79818974     0.20700
H2510       H  0.82269299  0.42353355  0.79424149     0.19100
H2511       H  0.81228115  0.45131849  0.81536513     0.19100
H2512       H  0.88835063  0.42662317  0.77440550     0.14900
C2513       C  0.80167073  0.44390936  0.85624001     0.30400
C2514       C  0.80347519  0.42703996  0.86093883    -0.36000
C2515       C  0.78961909  0.41975151  0.86912994     0.16400
C2516       C  0.77486832  0.42831483  0.87256216     0.22200
C2517       C  0.77301290  0.44521495  0.86771497    -0.34100
C2518       C  0.78692369  0.45252805  0.85946790     0.16300
O2519       O  0.81318936  0.45325388  0.84871720    -0.26100
C2520       C  0.80578280  0.46818393  0.84688865     0.06000
C2521       C  0.78934199  0.46831496  0.85336529    -0.31000
O2522       O  0.76341277  0.41874437  0.88006512    -0.22800
C2523       C  0.77101012  0.40383130  0.88140480    -0.02800
C2524       C  0.78730199  0.40388169  0.87478364    -0.17200
H2525       H  0.81491021  0.42004232  0.85837316     0.20700
H2526       H  0.76152780  0.45217590  0.87014570     0.19100
H2527       H  0.78037548  0.47856702  0.85364018     0.19100
H2528       H  0.79607637  0.39348747  0.87385153     0.14900
C2529       C  0.85656975  0.55594993  0.18675608     0.30400
C2530       C  0.86800865  0.56949038  0.18550607    -0.36000
C2531       C  0.87319555  0.57691003  0.20055915     0.16400
C2532       C  0.86746609  0.57141667  0.21571971     0.22200
C2533       C  0.85595260  0.55810639  0.21693798    -0.34100
C2534       C  0.85079344  0.55075555  0.20200813     0.16300
O2535       O  0.85074038  0.54644761  0.17451010    -0.26100
C2536       C  0.84092795  0.53516350  0.18210297     0.06000
C2537       C  0.84052986  0.53741851  0.19918509    -0.31000
O2538       O  0.87267923  0.58090313  0.22809802    -0.22800
C2539       C  0.88220888  0.59266951  0.22103895    -0.02800
C2540       C  0.88281255  0.59081289  0.20382564    -0.17200
H2541       H  0.87252826  0.57394604  0.17366044     0.20700
H2542       H  0.85116511  0.55387041  0.22876699     0.19100
H2543       H  0.83438588  0.52958756  0.20832452     0.19100
H2544       H  0.88798358  0.59952491  0.19489562     0.14900
C2545       C  0.78427875  0.57922559  0.13589898     0.30400
C2546       C  0.79527688  0.57485039  0.14892975    -0.36000
C2547       C  0.80210836  0.55853025  0.14860970     0.16400
C2548       C  0.79830783  0.54726568  0.13631271     0.22200
C2549       C  0.78732279  0.55165959  0.12320136    -0.34100
C2550       C  0.78054859  0.56806963  0.12344445     0.16300
O2551       O  0.77544193  0.59325114  0.13473439    -0.26100
C2552       C  0.76599302  0.59143824  0.12118020     0.06000
C2553       C  0.76868566  0.57590736  0.11359587    -0.31000
O2554       O  0.80524768  0.53237828  0.13898347    -0.22800
C2555       C  0.81378369  0.53392376  0.15320613    -0.02800
C2556       C  0.81215062  0.55011671  0.15971564    -0.17200
H2557       H  0.79788849  0.58343777  0.15895870     0.20700
H2558       H  0.78390064  0.54271767  0.11372898     0.19100
H2559       H  0.76184492  0.57058661  0.10329653     0.19100
H2560       H  0.81673068  0.55491883  0.17135396     0.14900
C2561       C  0.79768681  0.45728733  0.14207627     0.30400
C2562       C  0.78380841  0.45186439  0.13255837    -0.36000
C2563       C  0.78421247  0.43511204  0.12706283     0.16400
C2564       C  0.79738405  0.42446849  0.13083174     0.22200
C2565       C  0.81135542  0.42995771  0.14018921    -0.34100
C2566       C  0.81096294  0.44673151  0.14563244     0.16300
O2567       O  0.79989408  0.47246057  0.14820981    -0.26100
C2568       C  0.81481752  0.47188310  0.15592596     0.06000
C2569       C  0.82233691  0.45604598  0.15457578    -0.31000
O2570       O  0.79483634  0.40911044  0.12527732    -0.22800
C2571       C  0.77989118  0.40977709  0.11764737    -0.02800
C2572       C  0.77271267  0.42576514  0.11828735    -0.17200
H2573       H  0.77336188  0.46014224  0.12971240     0.20700
H2574       H  0.82173812  0.42164650  0.14316622     0.19100
H2575       H  0.83463772  0.45208645  0.15887156     0.19100
H2576       H  0.76048601  0.42969659  0.11374345     0.14900
C2577       C  0.85937161  0.46074878  0.20087865     0.30400
C2578       C  0.87384161  0.45579842  0.20996324    -0.36000
C2579       C  0.87199097  0.44194196  0.22072977     0.16400
C2580       C  0.85687353  0.43360045  0.22230038     0.22200
C2581       C  0.84241263  0.43860357  0.21332468    -0.34100
C2582       C  0.84428058  0.45240023  0.20257194     0.16300
O2583       O  0.85816791  0.47369701  0.19065484    -0.26100
C2584       C  0.84212067  0.47368422  0.18541806     0.06000
C2585       C  0.83286946  0.46066351  0.19262572    -0.31000
O2586       O  0.85793855  0.42066153  0.23246980    -0.22800
C2587       C  0.87393332  0.42051736  0.23776786    -0.02800
C2588       C  0.88330994  0.43363926  0.23088434    -0.17200
H2589       H  0.88572364  0.46234512  0.20873648     0.20700
H2590       H  0.83050460  0.43210705  0.21460621     0.19100
H2591       H  0.81949852  0.45819943  0.19143846     0.19100
H2592       H  0.89659927  0.43624087  0.23252458     0.14900
C2593       C  0.53593432  0.80675749  0.13202946     0.30400
C2594       C  0.54041117  0.79235988  0.12280698    -0.36000
C2595       C  0.55653390  0.79229801  0.11537603     0.16400
C2596       C  0.56755868  0.80548069  0.11712632     0.22200
C2597       C  0.56302072  0.81996892  0.12627891    -0.34100
C2598       C  0.54681619  0.82006622  0.13364049     0.16300
O2599       O  0.52139806  0.80938704  0.13967197    -0.26100
C2600       C  0.52265073  0.82465369  0.14645031     0.06000
C2601       C  0.53838859  0.83189453  0.14305515    -0.31000
O2602       O  0.58265470  0.80200267  0.11090139    -0.22800
C2603       C  0.58140606  0.78647813  0.10468301    -0.02800
C2604       C  0.56527120  0.77987909  0.10713108    -0.17200
H2605       H  0.53195185  0.78178286  0.12171810     0.20700
H2606       H  0.57171709  0.83028356  0.12789950     0.19100
H2607       H  0.54273814  0.84430067  0.14633348     0.19100
H2608       H  0.56122976  0.76709617  0.10508635     0.14900
C2609       C  0.56037669  0.86504398  0.21450933     0.30400
C2610       C  0.55523939  0.85119316  0.20499900    -0.36000
C2611       C  0.54308809  0.85424644  0.19276460     0.16400
C2612       C  0.53624609  0.86990738  0.19018511     0.22200
C2613       C  0.54152626  0.88392478  0.19971707    -0.34100
C2614       C  0.55390827  0.88087531  0.21200040     0.16300
O2615       O  0.57091870  0.86442712  0.22701941    -0.26100
C2616       C  0.57165343  0.88003011  0.23296098     0.06000
C2617       C  0.56124884  0.89099639  0.22399460    -0.31000
O2618       O  0.52372824  0.86947561  0.17930784    -0.22800
C2619       C  0.52269779  0.85337377  0.17458071    -0.02800
C2620       C  0.53455649  0.84337872  0.18265858    -0.17200
H2621       H  0.56005169  0.83871028  0.20736787     0.20700
H2622       H  0.53594269  0.89620307  0.19804769     0.19100
H2623       H  0.55888631  0.90415052  0.22633907     0.19100
H2624       H  0.53562866  0.82985064  0.18235486     0.14900
C2625       C  0.44654514  0.86920230  0.19106242     0.30400
C2626       C  0.44088749  0.88294931  0.20076311    -0.36000
C2627       C  0.42689534  0.88002924  0.21128363     0.16400
C2628       C  0.41928799  0.86454408  0.21211966     0.22200
C2629       C  0.42485338  0.85092393  0.20243967    -0.34100
C2630       C  0.43861791  0.85388621  0.19187303     0.16300
O2631       O  0.46002226  0.86875612  0.18131327    -0.26100
C2632       C  0.46067407  0.85300337  0.17553818     0.06000
C2633       C  0.44753711  0.84322457  0.18178253    -0.31000
O2634       O  0.40703083  0.86407281  0.22311998    -0.22800
C2635       C  0.40636806  0.87944924  0.22962087    -0.02800
C2636       C  0.41850553  0.89007092  0.22265197    -0.17200
H2637       H  0.44720323  0.89496024  0.20039951     0.20700
H2638       H  0.41901625  0.83870322  0.20335407     0.19100
H2639       H  0.44557934  0.82990122  0.18020333     0.19100
H2640       H  0.42112852  0.90298177  0.22582554     0.14900
C2641       C  0.43870368  0.81889073  0.13453282     0.30400
C2642       C  0.42407738  0.82016145  0.12457718    -0.36000
C2643       C  0.41722908  0.80493641  0.11858282     0.16400
C2644       C  0.42424440  0.78953075  0.12215315     0.22200
C2645       C  0.43877634  0.78827032  0.13207343    -0.34100
C2646       C  0.44555614  0.80340490  0.13806479     0.16300
O2647       O  0.44763884  0.83142334  0.14100805    -0.26100
C2648       C  0.46036290  0.82380625  0.14892806     0.06000
C2649       C  0.45949071  0.80636851  0.14747489    -0.31000
O2650       O  0.41500093  0.77685091  0.11667738    -0.22800
C2651       C  0.40188093  0.78403927  0.10910936    -0.02800
C2652       C  0.40263571  0.80155414  0.11009892    -0.17200
H2653       H  0.41832749  0.83216075  0.12181920     0.20700
H2654       H  0.44427110  0.77624098  0.13518851     0.19100
H2655       H  0.46845189  0.79718686  0.15200023     0.19100
H2656       H  0.39290709  0.81043529  0.10663608     0.14900
C2657       C  0.12626586  0.55359605  0.81519131     0.30400
C2658       C  0.11749921  0.56905335  0.81550158    -0.36000
C2659       C  0.11023848  0.57441033  0.80040888     0.16400
C2660       C  0.11154517  0.56524173  0.78601612     0.22200
C2661       C  0.12031150  0.54991251  0.78570048    -0.34100
C2662       C  0.12756836  0.54463165  0.80068195     0.16300
O2663       O  0.13365313  0.54582018  0.82786148    -0.26100
C2664       C  0.13985105  0.53169307  0.82127377     0.06000
C2665       C  0.13651205  0.53056423  0.80435615    -0.31000
O2666       O  0.10545529  0.57329261  0.77299185    -0.22800
C2667       C  0.09980081  0.58783203  0.77898150    -0.02800
C2668       C  0.10257950  0.58917259  0.79600921    -0.17200
H2669       H  0.11659390  0.57649804  0.82664514     0.20700
H2670       H  0.12173359  0.54275165  0.77442008     0.19100
H2671       H  0.13964316  0.52039222  0.79602804     0.19100
H2672       H  0.10098041  0.60020299  0.80364784     0.14900
C2673       C  0.18111842  0.54970497  0.86622090     0.30400
C2674       C  0.19063861  0.55590033  0.87971797    -0.36000
C2675       C  0.20053870  0.57031298  0.87673088     0.16400
C2676       C  0.20087416  0.57793111  0.86144769     0.22200
C2677       C  0.19130339  0.57185284  0.84806140    -0.34100
C2678       C  0.18144694  0.55753830  0.85105158     0.16300
O2679       O  0.17233433  0.53560672  0.86584190    -0.26100
C2680       C  0.16672342  0.53435200  0.85026786     0.06000
C2681       C  0.17206467  0.54779460  0.84052243    -0.31000
O2682       O  0.21179384  0.59033073  0.86077132    -0.22800
C2683       C  0.21874513  0.59102007  0.87579453    -0.02800
C2684       C  0.21212939  0.57880593  0.88639248    -0.17200
H2685       H  0.19081186  0.54953275  0.89153053     0.20700
H2686       H  0.19200894  0.57755943  0.83594042     0.19100
H2687       H  0.17051238  0.54944990  0.82733408     0.19100
H2688       H  0.21596603  0.57595070  0.89891481     0.14900
C2689       C  0.19145884  0.42682870  0.87823264     0.30400
C2690       C  0.17626535  0.43136960  0.87025140    -0.36000
C2691       C  0.17500766  0.44808388  0.86467274     0.16400
C2692       C  0.18789767  0.45943371  0.86669582     0.22200
C2693       C  0.20296307  0.45497158  0.87484515    -0.34100
C2694       C  0.20413909  0.43835617  0.88061701     0.16300
O2695       O  0.19607356  0.41151137  0.88269037    -0.26100
C2696       C  0.21176320  0.41320152  0.88852624     0.06000
C2697       C  0.21738784  0.42972371  0.88746643    -0.31000
O2698       O  0.18436507  0.47420290  0.86014424    -0.22800
C2699       C  0.16893014  0.47253814  0.85371416    -0.02800
C2700       C  0.16240598  0.45646881  0.85642377    -0.17200
H2701       H  0.16632877  0.42235312  0.86808505     0.20700
H2702       H  0.21323624  0.46376798  0.87625084     0.19100
H2703       H  0.23006135  0.43429863  0.88952455     0.19100
H2704       H  0.15010956  0.45166530  0.85313462     0.14900
C2705       C  0.12583603  0.45415375  0.81135646     0.30400
C2706       C  0.11214409  0.44714817  0.80250334    -0.36000
C2707       C  0.11572147  0.43279200  0.79285299     0.16400
C2708       C  0.13172267  0.42600273  0.79210663     0.22200
C2709       C  0.14528562  0.43289902  0.80097212    -0.34100
C2710       C  0.14172204  0.44714179  0.81053141     0.16300
O2711       O  0.12570514  0.46821734  0.82007146    -0.26100
C2712       C  0.14167492  0.47015543  0.82513833     0.06000
C2713       C  0.15220018  0.45742339  0.81930953    -0.31000
O2714       O  0.13283595  0.41358601  0.78145894    -0.22800
C2715       C  0.11737803  0.41202988  0.77513895    -0.02800
C2716       C  0.10604438  0.42366328  0.78186958    -0.17200
H2717       H  0.09972805  0.45284637  0.80267201     0.20700
H2718       H  0.15794141  0.42783771  0.79997628     0.19100
H2719       H  0.16577500  0.45643942  0.82048636     0.19100
H2720       H  0.09302648  0.42581689  0.77841515     0.14900
C2721       C  0.53924641  0.19932903  0.86546556     0.30400
C2722       C  0.54483733  0.20779100  0.87982098    -0.36000
C2723       C  0.55936802  0.21787987  0.87807315     0.16400
C2724       C  0.56779875  0.21926987  0.86321067     0.22200
C2725       C  0.56219988  0.21090197  0.84891773    -0.34100
C2726       C  0.54768022  0.20097058  0.85064555     0.16300
O2727       O  0.52557754  0.18989542  0.86408824    -0.26100
C2728       C  0.52525684  0.18522218  0.84818697     0.06000
C2729       C  0.53871115  0.19198459  0.83924003    -0.31000
O2730       O  0.58131339  0.22881513  0.86426687    -0.22800
C2731       C  0.58169602  0.23394139  0.87997116    -0.02800
C2732       C  0.56823021  0.22755298  0.88921506    -0.17200
H2733       H  0.53822205  0.20669852  0.89149456     0.20700
H2734       H  0.56872214  0.21211277  0.83720157     0.19100
H2735       H  0.54108756  0.19113045  0.82608240     0.19100
H2736       H  0.56574258  0.22919758  0.90227790     0.14900
C2737       C  0.57552120  0.13361546  0.80219299     0.30400
C2738       C  0.56911094  0.14120687  0.81668044    -0.36000
C2739       C  0.55240158  0.14726436  0.81597163     0.16400
C2740       C  0.54272430  0.14600379  0.80191706     0.22200
C2741       C  0.54907803  0.13825380  0.78746080    -0.34100
C2742       C  0.56576888  0.13208706  0.78818930     0.16300
O2743       O  0.59089489  0.12745226  0.80011817    -0.26100
C2744       C  0.59112891  0.12166484  0.78461174     0.06000
C2745       C  0.57573942  0.12418602  0.77658108    -0.31000
O2746       O  0.52742535  0.15239541  0.80397897    -0.22800
C2747       C  0.52709896  0.15798515  0.81959048    -0.02800
C2748       C  0.54238072  0.15484835  0.82768541    -0.17200
H2749       H  0.57667133  0.14234090  0.82775469     0.20700
H2750       H  0.54150007  0.13709829  0.77639945     0.19100
H2751       H  0.57252502  0.12108449  0.76394826     0.19100
H2752       H  0.54554786  0.15726514  0.84046692     0.14900
C2753       C  0.42756520  0.13042158  0.78388348     0.30400
C2754       C  0.44401758  0.13698623  0.78297872    -0.36000
C2755       C  0.45005871  0.14524183  0.79718478     0.16400
C2756       C  0.44076218  0.14695719  0.81149463     0.22200
C2757       C  0.42414382  0.14055923  0.81234354    -0.34100
C2758       C  0.41806293  0.13224153  0.79807085     0.16300
O2759       O  0.41895396  0.12359540  0.77152637    -0.26100
C2760       C  0.40364387  0.12064282  0.77780932     0.06000
C2761       C  0.40246824  0.12594485  0.79429154    -0.31000
O2762       O  0.44934148  0.15465326  0.82346920    -0.22800
C2763       C  0.46441309  0.15799519  0.81668462    -0.02800
C2764       C  0.46522377  0.15257763  0.80021516    -0.17200
H2765       H  0.45154106  0.13596827  0.77183598     0.20700
H2766       H  0.41642942  0.14205798  0.82330575     0.19100
H2767       H  0.39117896  0.12670669  0.80182980     0.19100
H2768       H  0.47568895  0.15348615  0.79164109     0.14900
C2769       C  0.44059492  0.19742817  0.84799724     0.30400
C2770       C  0.42650684  0.20722076  0.84370862    -0.36000
C2771       C  0.41897966  0.21664481  0.85648256     0.16400
C2772       C  0.42471674  0.21666054  0.87256179     0.22200
C2773       C  0.43879527  0.20663466  0.87693995    -0.34100
C2774       C  0.44638196  0.19712989  0.86406366     0.16300
O2775       O  0.45043895  0.18896880  0.83759211    -0.26100
C2776       C  0.46285042  0.18295052  0.84701626     0.06000
C2777       C  0.46077626  0.18758947  0.86365580    -0.31000
O2778       O  0.41637615  0.22763242  0.88209845    -0.22800
C2779       C  0.40509144  0.23463548  0.87186613    -0.02800
C2780       C  0.40630212  0.22810171  0.85588580    -0.17200
H2781       H  0.42210339  0.20800498  0.83107356     0.20700
H2782       H  0.44390872  0.20673043  0.88933666     0.19100
H2783       H  0.46927625  0.18518725  0.87385087     0.19100
H2784       H  0.39932646  0.23193061  0.84501591     0.14900
C2785       C  0.85130885  0.80667154  0.54639711     0.30400
C2786       C  0.86556243  0.79794951  0.55257394    -0.36000
C2787       C  0.86349263  0.78958807  0.56786313     0.16400
C2788       C  0.84840648  0.79002420  0.57638931     0.22200
C2789       C  0.83436323  0.79895813  0.57041471    -0.34100
C2790       C  0.83640141  0.80711854  0.55517277     0.16300
O2791       O  0.84978845  0.81371202  0.53160758    -0.26100
C2792       C  0.83370376  0.81889868  0.53089007     0.06000
C2793       C  0.82483766  0.81498868  0.54533007    -0.31000
O2794       O  0.84820397  0.77961314  0.58901753    -0.22800
C2795       C  0.86335332  0.77227305  0.58893407    -0.02800
C2796       C  0.87357962  0.77815509  0.57607821    -0.17200
H2797       H  0.87711900  0.79691943  0.54548079     0.20700
H2798       H  0.82230224  0.79866182  0.57673565     0.19100
H2799       H  0.81150165  0.81643110  0.54784785     0.19100
H2800       H  0.88577672  0.77338439  0.57224476     0.14900
C2801       C  0.79520268  0.85860547  0.54957173     0.30400
C2802       C  0.79514362  0.87072392  0.56231042    -0.36000
C2803       C  0.77915637  0.87573177  0.56839656     0.16400
C2804       C  0.76430122  0.86913685  0.56246230     0.22200
C2805       C  0.76435463  0.85697267  0.54989697    -0.34100
C2806       C  0.78024704  0.85202583  0.54383482     0.16300
O2807       O  0.80853047  0.85294136  0.54120903    -0.26100
C2808       C  0.80198067  0.84244757  0.53006449     0.06000
C2809       C  0.78444091  0.84137337  0.53134173    -0.31000
O2810       O  0.75094119  0.87425636  0.57091117    -0.22800
C2811       C  0.75704715  0.88463391  0.58235428    -0.02800
C2812       C  0.77462451  0.88591570  0.58134786    -0.17200
H2813       H  0.80674649  0.87590867  0.56713824     0.20700
H2814       H  0.75276014  0.85156826  0.54527089     0.19100
H2815       H  0.77589371  0.83466148  0.52329312     0.19100
H2816       H  0.78300255  0.89179051  0.59015889     0.14900
C2817       C  0.78362833  0.85734413  0.45727795     0.30400
C2818       C  0.76856551  0.86585784  0.45325367    -0.36000
C2819       C  0.76832991  0.87434288  0.43800485     0.16400
C2820       C  0.78193647  0.87415480  0.42736801     0.22200
C2821       C  0.79709653  0.86579990  0.43150724    -0.34100
C2822       C  0.79739833  0.85748856  0.44687279     0.16300
O2823       O  0.78660314  0.84904592  0.47106371    -0.26100
C2824       C  0.80258318  0.84372277  0.46977695     0.06000
C2825       C  0.80996138  0.84873223  0.45484900    -0.31000
O2826       O  0.77831382  0.88103604  0.41294303    -0.22800
C2827       C  0.76227680  0.88612775  0.41432410    -0.02800
C2828       C  0.75545618  0.88232988  0.42979122    -0.17200
H2829       H  0.75769981  0.86569840  0.46139087     0.20700
H2830       H  0.80777966  0.86549537  0.42315284     0.19100
H2831       H  0.82288518  0.84702740  0.45082531     0.19100
H2832       H  0.74238619  0.88331198  0.43362196     0.14900
C2833       C  0.84999640  0.80404766  0.45352583     0.30400
C2834       C  0.86433282  0.79576221  0.44675523    -0.36000
C2835       C  0.86187330  0.78677430  0.43183605     0.16400
C2836       C  0.84632032  0.78616345  0.42428472     0.22200
C2837       C  0.83212645  0.79441745  0.43096714    -0.34100
C2838       C  0.83457744  0.80327871  0.44576157     0.16300
O2839       O  0.84909755  0.81232067  0.46777169    -0.26100
C2840       C  0.83290179  0.81714330  0.46908935     0.06000
C2841       C  0.82331901  0.81156187  0.45572738    -0.31000
O2842       O  0.84621578  0.77618588  0.41131171    -0.22800
C2843       C  0.86189098  0.77007323  0.41014383    -0.02800
C2844       C  0.87234274  0.77635719  0.42263529    -0.17200
H2845       H  0.87642308  0.79589602  0.45295396     0.20700
H2846       H  0.81981512  0.79352010  0.42525560     0.19100
H2847       H  0.80982509  0.81268633  0.45395977     0.19100
H2848       H  0.88528822  0.77291334  0.42523764     0.14900
C2849       C  0.79292144  0.14653558  0.54484155     0.30400
C2850       C  0.78394945  0.13223069  0.55034995    -0.36000
C2851       C  0.77607066  0.13335704  0.56601757     0.16400
C2852       C  0.77714058  0.14758826  0.57559482     0.22200
C2853       C  0.78594900  0.16191779  0.57001486    -0.34100
C2854       C  0.79371400  0.16081713  0.55433737     0.16300
O2855       O  0.80081444  0.14832413  0.53047184    -0.26100
C2856       C  0.80696080  0.16397383  0.53060497     0.06000
C2857       C  0.80260639  0.17238355  0.54519512    -0.31000
O2858       O  0.76910821  0.14598722  0.58988315    -0.22800
C2859       C  0.76253287  0.13055497  0.58961741    -0.02800
C2860       C  0.76645257  0.12210183  0.57494513    -0.17200
H2861       H  0.78307599  0.12102669  0.54286532     0.20700
H2862       H  0.78664350  0.17320273  0.57739559     0.19100
H2863       H  0.80489340  0.18535274  0.54835679     0.19100
H2864       H  0.76295387  0.10948262  0.57146811     0.14900
C2865       C  0.84519619  0.19463704  0.55537123     0.30400
C2866       C  0.84913266  0.19249493  0.57223334    -0.36000
C2867       C  0.85827842  0.20553043  0.57989798     0.16400
C2868       C  0.86335864  0.21981634  0.57169283     0.22200
C2869       C  0.85918371  0.22206704  0.55483068    -0.34100
C2870       C  0.84996035  0.20900337  0.54715513     0.16300
O2871       O  0.83708008  0.18383302  0.54570027    -0.26100
C2872       C  0.83630527  0.19136667  0.53094156     0.06000
C2873       C  0.84419035  0.20713121  0.53131445    -0.31000
O2874       O  0.87200945  0.23028458  0.58139673    -0.22800
C2875       C  0.87243469  0.22256477  0.59610432    -0.02800
C2876       C  0.86397621  0.20718066  0.59570995    -0.17200
H2877       H  0.84540863  0.18134139  0.57894035     0.20700
H2878       H  0.86293878  0.23319422  0.54809963     0.19100
H2879       H  0.84554506  0.21606519  0.52132396     0.19100
H2880       H  0.86221202  0.19838373  0.60576906     0.14900
C2881       C  0.85645231  0.20356431  0.45542353     0.30400
C2882       C  0.87095299  0.21273622  0.45055173    -0.36000
C2883       C  0.87101658  0.21938105  0.43433183     0.16400
C2884       C  0.85775629  0.21685626  0.42364521     0.22200
C2885       C  0.84325426  0.20779277  0.42854830    -0.34100
C2886       C  0.84312785  0.20132387  0.44479104     0.16300
O2887       O  0.85353142  0.19685814  0.47015729    -0.26100
C2888       C  0.83805926  0.19010089  0.46920993     0.06000
C2889       C  0.83100018  0.19265574  0.45353753    -0.31000
O2890       O  0.86058270  0.22345472  0.40888260    -0.22800
C2891       C  0.87578280  0.23065636  0.40993488    -0.02800
C2892       C  0.88288617  0.22855421  0.42562642    -0.17200
H2893       H  0.88143243  0.21465502  0.45890504     0.20700
H2894       H  0.83274390  0.20592023  0.42022050     0.19100
H2895       H  0.81846094  0.18949145  0.44933877     0.19100
H2896       H  0.89525260  0.23246241  0.42975647     0.14900
C2897       C  0.78583461  0.15416292  0.45642003     0.30400
C2898       C  0.76950454  0.14919015  0.45147201    -0.36000
C2899       C  0.76840423  0.13898521  0.43728133     0.16400
C2900       C  0.78244006  0.13423907  0.42834288     0.22200
C2901       C  0.79885225  0.13912758  0.43337935    -0.34100
C2902       C  0.79996995  0.14923174  0.44773059     0.16300
O2903       O  0.78958997  0.16316737  0.46965050    -0.26100
C2904       C  0.80643619  0.16436807  0.46962669     0.06000
C2905       C  0.81358957  0.15574043  0.45621797    -0.31000
O2906       O  0.77837849  0.12590179  0.41469836    -0.22800
C2907       C  0.76149996  0.12475610  0.41505851    -0.02800
C2908       C  0.75468049  0.13281310  0.42888151    -0.17200
H2909       H  0.75835514  0.15306528  0.45825776     0.20700
H2910       H  0.80998461  0.13544725  0.42646718     0.19100
H2911       H  0.82686132  0.15385439  0.45356712     0.19100
H2912       H  0.74147433  0.13509658  0.43156984     0.14900
C2913       C  0.18620401  0.87938886  0.57998861     0.30400
C2914       C  0.17174090  0.87033446  0.57502377    -0.36000
C2915       C  0.17145219  0.86472763  0.55848029     0.16400
C2916       C  0.18463591  0.86766668  0.54777569     0.22200
C2917       C  0.19890974  0.87693521  0.55262783    -0.34100
C2918       C  0.19907786  0.88279036  0.56901913     0.16300
O2919       O  0.18991455  0.88423243  0.59519719    -0.26100
C2920       C  0.20516111  0.89133720  0.59397927     0.06000
C2921       C  0.21143075  0.89078055  0.57787263    -0.31000
O2922       O  0.18205744  0.86110128  0.53304932    -0.22800
C2923       C  0.16688796  0.85381170  0.53393011    -0.02800
C2924       C  0.15959572  0.85591614  0.54960786    -0.17200
H2925       H  0.16161041  0.86750128  0.58358774     0.20700
H2926       H  0.20932934  0.87919603  0.54422737     0.19100
H2927       H  0.22402914  0.89394385  0.57370944     0.19100
H2928       H  0.14716628  0.85226904  0.55379602     0.14900
C2929       C  0.11037544  0.79246326  0.56970253     0.30400
C2930       C  0.10704099  0.80034205  0.55435604    -0.36000
C2931       C  0.11998063  0.81070690  0.54781178     0.16400
C2932       C  0.13522872  0.81301864  0.55563719     0.22200
C2933       C  0.13837023  0.80554744  0.57106896    -0.34100
C2934       C  0.12542389  0.79545925  0.57768170     0.16300
O2935       O  0.10111903  0.78071080  0.57728330    -0.26100
C2936       C  0.11034371  0.77637295  0.59048191     0.06000
C2937       C  0.12541728  0.78543096  0.59123760    -0.31000
O2938       O  0.14613233  0.82186706  0.54669305    -0.22800
C2939       C  0.13775513  0.82577841  0.53291438    -0.02800
C2940       C  0.12134974  0.81909636  0.53308933    -0.17200
H2941       H  0.09549186  0.79801346  0.54763219     0.20700
H2942       H  0.15039326  0.80694636  0.57723365     0.19100
H2943       H  0.13577055  0.78367089  0.59979100     0.19100
H2944       H  0.11192218  0.81975118  0.52344953     0.14900
C2945       C  0.12735153  0.80953456  0.45666361     0.30400
C2946       C  0.11365205  0.80063460  0.44971238    -0.36000
C2947       C  0.11760120  0.78913465  0.43699254     0.16400
C2948       C  0.13395269  0.78672002  0.43162692     0.22200
C2949       C  0.14756343  0.79562542  0.43847420    -0.34100
C2950       C  0.14361845  0.80706564  0.45109041     0.16300
O2951       O  0.12674515  0.81989801  0.46944439    -0.26100
C2952       C  0.14280450  0.82439323  0.47197059     0.06000
C2953       C  0.15384487  0.81661946  0.46090517    -0.31000
O2954       O  0.13510162  0.77504114  0.42018355    -0.22800
C2955       C  0.11932345  0.76967880  0.41791663    -0.02800
C2956       C  0.10777558  0.77806681  0.42809030    -0.17200
H2957       H  0.10086926  0.80224899  0.45421769     0.20700
H2958       H  0.16044579  0.79346298  0.43448169     0.19100
H2959       H  0.16750468  0.81706919  0.46081573     0.19100
H2960       H  0.09429993  0.77606715  0.42906735     0.14900
C2961       C  0.19398167  0.87561092  0.42710633     0.30400
C2962       C  0.17879049  0.86755276  0.43167056    -0.36000
C2963       C  0.17708524  0.86295750  0.44844069     0.16400
C2964       C  0.18951625  0.86609332  0.45987319     0.22200
C2965       C  0.20453701  0.87447587  0.45539800    -0.34100
C2966       C  0.20621503  0.87916115  0.43866261     0.16300
O2967       O  0.19894034  0.87924079  0.41187354    -0.26100
C2968       C  0.21442288  0.88564470  0.41358070     0.06000
C2969       C  0.21955761  0.88595517  0.43007375    -0.31000
O2970       O  0.18564157  0.86025018  0.47471143    -0.22800
C2971       C  0.17044321  0.85314410  0.47302803    -0.02800
C2972       C  0.16444184  0.85470933  0.45681650    -0.17200
H2973       H  0.16920113  0.86455138  0.42263705     0.20700
H2974       H  0.21445327  0.87678629  0.46429661     0.19100
H2975       H  0.23191806  0.88909074  0.43482881     0.19100
H2976       H  0.15243688  0.85070238  0.45187909     0.14900
C2977       C  0.55290565  0.14152818  0.18242505     0.30400
C2978       C  0.57019510  0.13762596  0.18075893    -0.36000
C2979       C  0.57764506  0.12865896  0.19394414     0.16400
C2980       C  0.56875572  0.12364659  0.20778086     0.22200
C2981       C  0.55151683  0.12758892  0.20943535    -0.34100
C2982       C  0.54415706  0.13674352  0.19638022     0.16300
O2983       O  0.54334826  0.15000445  0.17177596    -0.26100
C2984       C  0.52820770  0.15089853  0.17909453     0.06000
C2985       C  0.52823660  0.14285823  0.19452350    -0.31000
O2986       O  0.57842420  0.11608708  0.21896193    -0.22800
C2987       C  0.59381664  0.11631672  0.21224853    -0.02800
C2988       C  0.59396973  0.12397345  0.19668202    -0.17200
H2989       H  0.57743532  0.14158343  0.17008208     0.20700
H2990       H  0.54438639  0.12409010  0.22033670     0.19100
H2991       H  0.51805981  0.14170476  0.20339134     0.19100
H2992       H  0.60476105  0.12637614  0.18879077     0.14900
C2993       C  0.54342401  0.19433821  0.13631643     0.30400
C2994       C  0.54984873  0.20338481  0.12262937    -0.36000
C2995       C  0.56469268  0.21274847  0.12532378     0.16400
C2996       C  0.57260280  0.21303639  0.14047733     0.22200
C2997       C  0.56617755  0.20406631  0.15412632    -0.34100
C2998       C  0.55138559  0.19475342  0.15142747     0.16300
O2999       O  0.52935399  0.18539963  0.13675437    -0.26100
C3000       C  0.52827063  0.17975742  0.15231946     0.06000
C3001       C  0.54167704  0.18539554  0.16201608    -0.31000
O3002       O  0.58636568  0.22232028  0.14035655    -0.22800
C3003       C  0.58747097  0.22828529  0.12495485    -0.02800
C3004       C  0.57421939  0.22275548  0.11499026    -0.17200
H3005       H  0.54360287  0.20325317  0.11074333     0.20700
H3006       H  0.57228000  0.20440018  0.16608451     0.19100
H3007       H  0.54352805  0.18367837  0.17516550     0.19100
H3008       H  0.57212058  0.22539245  0.10202731     0.14900
C3009       C  0.41904804  0.20793017  0.13506271     0.30400
C3010       C  0.42407911  0.19711138  0.14798586    -0.36000
C3011       C  0.44055286  0.19048647  0.14704663     0.16400
C3012       C  0.45133867  0.19427569  0.13423596     0.22200
C3013       C  0.44627169  0.20505430  0.12121474    -0.34100
C3014       C  0.42972177  0.21167875  0.12211520     0.16300
O3015       O  0.40492918  0.21676837  0.13457851    -0.26100
C3016       C  0.40617675  0.22629922  0.12101981     0.06000
C3017       C  0.42143928  0.22358516  0.11268888    -0.31000
O3018       O  0.46651390  0.18760204  0.13637047    -0.22800
C3019       C  0.46563818  0.17926388  0.15075741    -0.02800
C3020       C  0.44959697  0.18074009  0.15792697    -0.17200
H3021       H  0.41590494  0.19456622  0.15842834     0.20700
H3022       H  0.45486816  0.20851197  0.11136962     0.19100
H3023       H  0.42642643  0.23053827  0.10227621     0.19100
H3024       H  0.44531139  0.17622966  0.16981013     0.14900
C3025       C  0.42903676  0.12009707  0.20856569     0.30400
C3026       C  0.43364448  0.12337921  0.19191979    -0.36000
C3027       C  0.44641848  0.13550392  0.18931830     0.16400
C3028       C  0.45402822  0.14374187  0.20226316     0.22200
C3029       C  0.44961035  0.14032185  0.21878350    -0.34100
C3030       C  0.43704160  0.12817754  0.22135718     0.16300
O3031       O  0.41612108  0.11087862  0.21384121    -0.26100
C3032       C  0.41613530  0.11263208  0.23032578     0.06000
C3033       C  0.42897981  0.12332816  0.23551880    -0.31000
O3034       O  0.46600660  0.15409907  0.19733002    -0.22800
C3035       C  0.46620190  0.15285550  0.18087363    -0.02800
C3036       C  0.45427631  0.14129182  0.17517904    -0.17200
H3037       H  0.42745517  0.11718829  0.18170771     0.20700
H3038       H  0.45549579  0.14683399  0.22897682     0.19100
H3039       H  0.43067489  0.12856697  0.24774626     0.19100
H3040       H  0.45251682  0.13691602  0.16264236     0.14900
C3041       C  0.18422947  0.54536209  0.13374670     0.30400
C3042       C  0.19399079  0.55033236  0.11991067    -0.36000
C3043       C  0.20193826  0.56611623  0.12089261     0.16400
C3044       C  0.20018901  0.57622544  0.13459993     0.22200
C3045       C  0.19039631  0.57129628  0.14835518    -0.34100
C3046       C  0.18262069  0.55550010  0.14742272     0.16300
O3047       O  0.17707347  0.53057456  0.13600369    -0.26100
C3048       C  0.17064968  0.53105475  0.15134119     0.06000
C3049       C  0.17393707  0.54636543  0.15906982    -0.31000
O3050       O  0.21022287  0.58936338  0.13401919    -0.22800
C3051       C  0.21865962  0.58796713  0.11975429    -0.02800
C3052       C  0.21388621  0.57369880  0.11092135    -0.17200
H3053       H  0.19595282  0.54206888  0.10946268     0.20700
H3054       H  0.18967359  0.57889244  0.15942623     0.19100
H3055       H  0.17145115  0.54987575  0.17176452     0.19100
H3056       H  0.21966841  0.56867019  0.09983712     0.14900
C3057       C  0.13023217  0.54320810  0.19938548     0.30400
C3058       C  0.12301626  0.54842074  0.21455109    -0.36000
C3059       C  0.11393320  0.56367289  0.21442077     0.16400
C3060       C  0.11228893  0.57322190  0.20032855     0.22200
C3061       C  0.11944260  0.56796081  0.18512974    -0.34100
C3062       C  0.12842163  0.55264116  0.18523897     0.16300
O3063       O  0.13899888  0.52929524  0.19677764    -0.26100
C3064       C  0.14312236  0.52965932  0.18071292     0.06000
C3065       C  0.13667625  0.54396177  0.17289057    -0.31000
O3066       O  0.10495432  0.58786494  0.20332360    -0.22800
C3067       C  0.10135764  0.58775161  0.21951536    -0.02800
C3068       C  0.10676928  0.57289464  0.22702543    -0.17200
H3069       H  0.12459206  0.54117251  0.22576299     0.20700
H3070       H  0.11840888  0.57550828  0.17405204     0.19100
H3071       H  0.13742147  0.54721528  0.15991920     0.19100
H3072       H  0.10719503  0.57013764  0.24012581     0.14900
C3073       C  0.13354991  0.45236370  0.19694200     0.30400
C3074       C  0.12055400  0.44587613  0.20712982    -0.36000
C3075       C  0.12489984  0.43223376  0.21743120     0.16400
C3076       C  0.14095356  0.42552985  0.21751107     0.22200
C3077       C  0.15381023  0.43181537  0.20719578    -0.34100
C3078       C  0.14949337  0.44542916  0.19701794     0.16300
O3079       O  0.13278047  0.46608235  0.18772976    -0.26100
C3080       C  0.14838367  0.46792284  0.18159522     0.06000
C3081       C  0.15931357  0.45537612  0.18710786    -0.31000
O3082       O  0.14293790  0.41411240  0.22912219    -0.22800
C3083       C  0.12799697  0.41318842  0.23673637    -0.02800
C3084       C  0.11613715  0.42415336  0.22987402    -0.17200
H3085       H  0.10816253  0.45159554  0.20757784     0.20700
H3086       H  0.16656220  0.42694292  0.20769383     0.19100
H3087       H  0.17280151  0.45442878  0.18513749     0.19100
H3088       H  0.10344907  0.42671472  0.23418769     0.14900
C3089       C  0.19583045  0.42335963  0.12673859     0.30400
C3090       C  0.18062342  0.42834855  0.13452256    -0.36000
C3091       C  0.17997035  0.44490495  0.14065055     0.16400
C3092       C  0.19338989  0.45574934  0.13918256     0.22200
C3093       C  0.20846985  0.45085432  0.13120813    -0.34100
C3094       C  0.20908947  0.43437093  0.12499673     0.16300
O3095       O  0.19990606  0.40797119  0.12198287    -0.26100
C3096       C  0.21585492  0.40911531  0.11662654     0.06000
C3097       C  0.22216471  0.42533810  0.11826182    -0.31000
O3098       O  0.19028994  0.47050189  0.14601104    -0.22800
C3099       C  0.17464005  0.46930692  0.15213415    -0.02800
C3100       C  0.16754961  0.45357545  0.14897029    -0.17200
H3101       H  0.17021948  0.41972534  0.13618432     0.20700
H3102       H  0.21917335  0.45922529  0.13027284     0.19100
H3103       H  0.23509501  0.42940203  0.11662133     0.19100
H3104       H  0.15497540  0.44924810  0.15198734     0.14900
C3105       C  0.13001552  0.19849002  0.54667344     0.30400
C3106       C  0.11914819  0.21201189  0.55023504    -0.36000
C3107       C  0.11528142  0.21467699  0.56698946     0.16400
C3108       C  0.12186033  0.20475999  0.57938051     0.22200
C3109       C  0.13230993  0.19086622  0.57573599    -0.34100
C3110       C  0.13610903  0.18817203  0.55892104     0.16300
O3111       O  0.13617322  0.19466364  0.53201685    -0.26100
C3112       C  0.14643920  0.18158050  0.53455322     0.06000
C3113       C  0.14658383  0.17681299  0.55123925    -0.31000
O3114       O  0.11898099  0.21110669  0.59421216    -0.22800
C3115       C  0.11005611  0.22505472  0.59141459    -0.02800
C3116       C  0.10725024  0.22780161  0.57463414    -0.17200
H3117       H  0.11469370  0.22039330  0.54064251     0.20700
H3118       H  0.13786998  0.18327573  0.58540619     0.19100
H3119       H  0.15329126  0.16662231  0.55709507     0.19100
H3120       H  0.10208460  0.23893532  0.56885821     0.14900
C3121       C  0.21475530  0.14904890  0.57800941     0.30400
C3122       C  0.20633143  0.16235270  0.57013026    -0.36000
C3123       C  0.19484732  0.15798268  0.55770587     0.16400
C3124       C  0.19187479  0.14159465  0.55320244     0.22200
C3125       C  0.20026621  0.12817953  0.56124437    -0.34100
C3126       C  0.21180700  0.13256796  0.57381631     0.16300
O3127       O  0.22665247  0.15060882  0.58922382    -0.26100
C3128       C  0.23159910  0.13497483  0.59255119     0.06000
C3129       C  0.22270512  0.12309816  0.58334369    -0.31000
O3130       O  0.18163396  0.14055399  0.54028734    -0.22800
C3131       C  0.17767836  0.15648186  0.53673095    -0.02800
C3132       C  0.18576537  0.16781522  0.54711475    -0.17200
H3133       H  0.20895379  0.17530400  0.57316224     0.20700
H3134       H  0.19832085  0.11527560  0.55760444     0.19100
H3135       H  0.22449030  0.10964149  0.58316023     0.19100
H3136       H  0.18575080  0.18136639  0.54630204     0.14900
C3137       C  0.19756143  0.13913115  0.46200890     0.30400
C3138       C  0.20822655  0.12587458  0.45672599    -0.36000
C3139       C  0.21690647  0.12827129  0.44160906     0.16400
C3140       C  0.21520368  0.14282565  0.43256115     0.22200
C3141       C  0.20453546  0.15594122  0.43777703    -0.34100
C3142       C  0.19581934  0.15348649  0.45271516     0.16300
O3143       O  0.18898982  0.14000278  0.47608179    -0.26100
C3144       C  0.18146512  0.15508217  0.47581583     0.06000
C3145       C  0.18541028  0.16398325  0.46144367    -0.31000
O3146       O  0.22527696  0.14320543  0.41957479    -0.22800
C3147       C  0.23358608  0.12863520  0.41990182    -0.02800
C3148       C  0.22883757  0.11870867  0.43339548    -0.17200
H3149       H  0.20995804  0.11466967  0.46409560     0.20700
H3150       H  0.20346092  0.16750920  0.43084203     0.19100
H3151       H  0.18206279  0.17669900  0.45817039     0.19100
H3152       H  0.23417414  0.10681693  0.43720616     0.14900
C3153       C  0.13932641  0.19375025  0.45548046     0.30400
C3154       C  0.12732451  0.19550356  0.44266385    -0.36000
C3155       C  0.12434207  0.21196870  0.43679317     0.16400
C3156       C  0.13266466  0.22569639  0.44307826     0.22200
C3157       C  0.14462287  0.22395469  0.45579754    -0.34100
C3158       C  0.14763269  0.20758554  0.46156618     0.16300
O3159       O  0.14339341  0.17977081  0.46355965    -0.26100
C3160       C  0.15475564  0.18470701  0.47474500     0.06000
C3161       C  0.15776023  0.20191340  0.47397311    -0.31000
O3162       O  0.12929725  0.23963244  0.43483312    -0.22800
C3163       C  0.11831759  0.23510429  0.42317416    -0.02800
C3164       C  0.11487347  0.21791719  0.42381269    -0.17200
H3165       H  0.12080781  0.18477767  0.43757215     0.20700
H3166       H  0.15135589  0.23464235  0.46069601     0.19100
H3167       H  0.16531437  0.20936706  0.48232590     0.19100
H3168       H  0.10800016  0.21055872  0.41483828     0.14900
loop_ 
_geom_bond_atom_site_label_1 
_geom_bond_atom_site_label_2 
_geom_bond_distance 
_geom_bond_site_symmetry_2 
_ccdc_geom_bond_type 
C1            C2   1.426       .  A
C1            C6   1.405       .  A
C1         C3160   1.494       .  S
C2            C3   1.417       .  A
C2         C3144   1.507       .  S
C3            C4   1.416       .  A
C3            H8   1.084       .  S
C4            C5   1.428       .  A
C4         C3131   1.494       .  S
C5            C6   1.411       .  A
C5         C3112   1.511       .  S
C6            H7   1.084       .  S
C9           C10   1.426       .  A
C9           C14   1.415       .  A
C9         C3080   1.501       .  S
C10          C11   1.412       .  A
C10        C3099   1.507       .  S
C11          C12   1.417       .  A
C11          H16   1.084       .  S
C12          C13   1.434       .  A
C12        C3048   1.508       .  S
C13          C14   1.417       .  A
C13        C3064   1.510       .  S
C14          H15   1.084       .  S
C17          C18   1.430       .  A
C17          C22   1.409       .  A
C17        C3035   1.497       .  S
C18          C19   1.420       .  A
C18        C3019   1.515       .  S
C19          C20   1.419       .  A
C19          H24   1.083       .  S
C20          C21   1.428       .  A
C20        C3000   1.504       .  S
C21          C22   1.414       .  A
C21        C2984   1.513       .  S
C22          H23   1.081       .  S
C25          C26   1.426       .  A
C25          C30   1.411       .  A
C25        C2971   1.514       .  S
C26          C27   1.415       .  A
C26        C2952   1.497       .  S
C27          C28   1.419       .  A
C27          H32   1.083       .  S
C28          C29   1.434       .  A
C28        C2939   1.514       .  S
C29          C30   1.419       .  A
C29        C2923   1.512       .  S
C30          H31   1.083       .  S
C33          C34   1.435       .  A
C33          C38   1.423       .  A
C33        C2888   1.520       .  S
C34          C35   1.417       .  A
C34        C2904   1.511       .  S
C35          C36   1.417       .  A
C35          H40   1.085       .  S
C36          C37   1.434       .  A
C36        C2856   1.514       .  S
C37          C38   1.424       .  A
C37        C2872   1.521       .  S
C38          H39   1.081       .  S
C41          C42   1.432       .  A
C41          C46   1.407       .  A
C41        C2824   1.504       .  S
C42          C43   1.423       .  A
C42        C2840   1.510       .  S
C43          C44   1.422       .  A
C43          H48   1.083       .  S
C44          C45   1.423       .  A
C44        C2792   1.505       .  S
C45          C46   1.402       .  A
C45        C2808   1.497       .  S
C46          H47   1.084       .  S
C49          C50   1.430       .  A
C49          C54   1.420       .  A
C49        C2763   1.516       .  S
C50          C51   1.419       .  A
C50        C2776   1.508       .  S
C51          C52   1.414       .  A
C51          H56   1.083       .  S
C52          C53   1.427       .  A
C52        C2728   1.503       .  S
C53          C54   1.413       .  A
C53        C2747   1.511       .  S
C54          H55   1.081       .  S
C57          C58   1.427       .  A
C57          C62   1.416       .  A
C57        C2699   1.506       .  S
C58          C59   1.409       .  A
C58        C2712   1.500       .  S
C59          C60   1.416       .  A
C59          H64   1.084       .  S
C60          C61   1.428       .  A
C60        C2664   1.503       .  S
C61          C62   1.415       .  A
C61        C2680   1.505       .  S
C62          H63   1.084       .  S
C65          C66   1.427       .  A
C65          C70   1.414       .  A
C65        C2648   1.507       .  S
C66          C67   1.415       .  A
C66        C2632   1.505       .  S
C67          C68   1.417       .  A
C67          H72   1.084       .  S
C68          C69   1.434       .  A
C68        C2619   1.504       .  S
C69          C70   1.416       .  A
C69        C2600   1.515       .  S
C70          H71   1.084       .  S
C73          C74   1.433       .  A
C73          C78   1.420       .  A
C73        C2568   1.508       .  S
C74          C75   1.412       .  A
C74        C2584   1.510       .  S
C75          C76   1.415       .  A
C75          H80   1.085       .  S
C76          C77   1.427       .  A
C76        C2536   1.495       .  S
C77          C78   1.416       .  A
C77        C2555   1.517       .  S
C78          H79   1.083       .  S
C81          C82   1.426       .  A
C81          C86   1.421       .  A
C81        C2520   1.506       .  S
C82          C83   1.407       .  A
C82        C2504   1.504       .  S
C83          C84   1.413       .  A
C83          H88   1.082       .  S
C84          C85   1.427       .  A
C84        C2488   1.510       .  S
C85          C86   1.417       .  A
C85        C2472   1.502       .  S
C86          H87   1.083       .  S
C89          C90   1.432       .  A
C89          C94   1.417       .  A
C89        C2456   1.513       .  S
C90          C91   1.414       .  A
C90        C2440   1.507       .  S
C91          C92   1.417       .  A
C91          H96   1.082       .  S
C92          C93   1.429       .  A
C92        C2424   1.516       .  S
C93          C94   1.417       .  A
C93        C2408   1.504       .  S
C94          H95   1.084       .  S
C97        C2376   1.492       .  S
C97          N98   1.377       .  A
C97         N102   1.357       .  A
N98          C99   1.378       .  A
C99        C2427   1.486       .  S
C99         N100   1.353       .  A
N100        C101   1.349       .  A
C101       C2392   1.461       .  S
C101        N102   1.351       .  A
C103       C2344   1.501       .  S
C103        N104   1.379       .  A
C103        N108   1.364       .  A
N104        C105   1.377       .  A
C105       C2475   1.492       .  S
C105        N106   1.354       .  A
N106        C107   1.349       .  A
C107       C2360   1.472       .  S
C107        N108   1.355       .  A
C109       C2312   1.486       .  S
C109        N110   1.374       .  A
C109        N114   1.357       .  A
N110        C111   1.373       .  A
C111       C2491   1.481       .  S
C111        N112   1.354       .  A
N112        C113   1.352       .  A
C113       C2331   1.463       .  S
C113        N114   1.352       .  A
C115       C2280   1.488       .  S
C115        N116   1.360       .  A
C115        N120   1.379       .  A
N116        C117   1.353       .  A
C117       C2299   1.465       .  S
C117        N118   1.347       .  A
N118        C119   1.352       .  A
C119       C2795   1.487       .  S
C119        N120   1.376       .  A
C121       C2248   1.488       .  S
C121        N122   1.356       .  A
C121        N126   1.377       .  A
N122        C123   1.350       .  A
C123       C2267   1.457       .  S
C123        N124   1.347       .  A
N124        C125   1.352       .  A
C125       C2811   1.479       .  S
C125        N126   1.377       .  A
C127       C2219   1.498       .  S
C127        N128   1.384       .  A
C127        N132   1.364       .  A
N128        C129   1.379       .  A
C129       C2411   1.494       .  S
C129        N130   1.350       .  A
N130        C131   1.345       .  A
C131       C2232   1.471       .  S
C131        N132   1.354       .  A
O133       Mg135   2.148       .  S
O133       Mg141   2.145       .  S
O133        C168   1.237       .  S
C134        H173   1.083       .  S
C134        O147   1.236       .  S
C134        O171   1.270       .  A
Mg135       O164   2.132       .  S
Mg135       O179   2.313       .  S
Mg135       O175   2.264       .  S
Mg135       O146   2.314       .  S
O136       Mg178   2.148       .  S
O136       Mg161   2.136       .  S
O136        C157   1.236       .  S
O137        C168   1.273       .  A
O137       Mg161   2.310       .  S
C138       C2328   1.463       .  S
C138        O140   1.270       .  A
C138        O152   1.272       .  A
O139        C167   1.270       .  A
O139       Mg141   2.304       .  S
O140       Mg172   2.251       .  S
Mg141       O147   2.124       .  S
Mg141       O155   2.235       .  S
Mg141       O143   2.299       .  S
C142       C2296   1.467       .  S
C142        O180   1.271       .  A
C142        O148   1.273       .  A
O143        C150   1.272       .  A
H144        C157   1.080       .  S
C145        H170   1.081       .  S
C145        O159   1.235       .  S
C145        O160   1.268       .  A
O146        C169   1.274       .  A
O147       Mg161   2.132       .  S
O148       Mg178   2.292       .  S
C149       C2264   1.455       .  S
C149        O162   1.268       .  A
C149        O154   1.270       .  A
C150       C2235   1.466       .  S
C150        O177   1.268       .  A
Mg151       O158   2.154       .  S
Mg151       O159   2.141       .  S
Mg151       O152   2.290       .  S
Mg151       O153   2.301       .  S
Mg151       O180   2.269       .  S
O153        C157   1.270       .  A
O154       Mg161   2.279       .  S
O155        C174   1.268       .  A
O156        C176   1.274       .  A
O156       Mg172   2.302       .  S
O158       Mg172   2.154       .  S
O158        C169   1.238       .  S
O159       Mg178   2.121       .  S
O160       Mg172   2.291       .  S
Mg161       O177   2.251       .  S
O162       Mg178   2.239       .  S
H163        C168   1.080       .  S
O164       Mg172   2.139       .  S
O164        C167   1.235       .  S
H165        C167   1.081       .  S
H166        C169   1.080       .  S
O171       Mg178   2.299       .  S
C174       C2395   1.461       .  S
C174        O179   1.274       .  A
O175        C176   1.270       .  A
C176       C2363   1.470       .  S
C181        C182   1.425       .  A
C181        C186   1.420       .  A
C181       C2347   1.519       .  S
C182        C183   1.412       .  A
C182       C2379   1.498       .  S
C183        C184   1.412   1_556  A
C183        H188   1.084       .  S
C184        C185   1.434       .  A
C184       C2184   1.512       .  S
C185        C186   1.421   1_554  A
C185       C2203   1.509       .  S
C186        H187   1.080       .  S
C189        C190   1.432       .  A
C189        C194   1.416   1_565  A
C189       C2216   1.514       .  S
C190        C191   1.413   1_565  A
C190       C2251   1.500       .  S
C191        C192   1.412       .  A
C191        H196   1.085       .  S
C192        C193   1.426       .  A
C192       C2152   1.505       .  S
C193        C194   1.419       .  A
C193       C2171   1.504       .  S
C194        H195   1.084       .  S
C197        C198   1.432       .  A
C197        C202   1.418       .  A
C197       C2283   1.507       .  S
C198        C199   1.412       .  A
C198       C2315   1.502       .  S
C199        C200   1.409   1_655  A
C199        H204   1.085       .  S
C200        C201   1.425       .  A
C200       C2120   1.492       .  S
C201        C202   1.413   1_455  A
C201       C2136   1.510       .  S
C202        H203   1.083       .  S
C205       C2523   1.491       .  S
C205        N206   1.358       .  A
C205        N210   1.375       .  A
N206        C207   1.350       .  A
C207       C2107   1.465       .  S
C207        N208   1.350       .  A
N208        C209   1.356       .  A
C209       C2088   1.485       .  S
C209        N210   1.376       .  A
C211       C2731   1.491       .  S
C211        N212   1.376       .  A
C211        N216   1.355       .  A
N212        C213   1.378       .  A
C213       C2059   1.484       .  S
C213        N214   1.356       .  A
N214        C215   1.350       .  A
C215       C2072   1.463       .  S
C215        N216   1.351       .  A
C217       C2024   1.477       .  S
C217        N218   1.375       .  A
C217        N222   1.351       .  A
N218        C219   1.376       .  A
C219       C2507   1.488       .  S
C219        N220   1.357       .  A
N220        C221   1.351       .  A
C221       C2040   1.459       .  S
C221        N222   1.348       .  A
C223       C1995   1.498       .  S
C223        N224   1.350       .  A
C223        N228   1.382       .  A
N224        C225   1.345       .  A
C225       C2008   1.472       .  S
C225        N226   1.353       .  A
N226        C227   1.366       .  A
C227       C2875   1.508       .  S
C227        N228   1.386       .  A
C229       C2155   1.486       .  S
C229        N230   1.378       .  A
C229        N234   1.348       .  A
N230        C231   1.381       .  A
C231       C2859   1.501       .  S
C231        N232   1.363       .  A
N232        C233   1.356       .  A
C233       C1976   1.463       .  S
C233        N234   1.347       .  A
C235       C2168   1.487       .  S
C235        N236   1.352       .  A
C235        N240   1.375       .  A
N236        C237   1.349       .  A
C237       C1960   1.467       .  S
C237        N238   1.355       .  A
N238        C239   1.361       .  A
C239       C2744   1.493       .  S
C239        N240   1.378       .  A
O241       Mg243   2.132       .  S
O241       Mg249   2.137       .  S
O241        C276   1.236       .  S
C242        H281   1.081       .  S
C242        O255   1.238       .  S
C242        O279   1.272       .  A
Mg243       O272   2.160       .  S
Mg243       O287   2.299       .  S
Mg243       O283   2.275       .  S
Mg243       O254   2.297       .  S
O244       Mg286   2.136       .  S
O244       Mg269   2.113       .  S
O244        C265   1.236       .  S
O245        C276   1.270       .  A
O245       Mg269   2.298       .  S
C246       C2011   1.466       .  S
C246        O248   1.270       .  A
C246        O260   1.274       .  A
O247        C275   1.273       .  A
O247       Mg249   2.309       .  S
O248       Mg280   2.263       .  S
Mg249       O255   2.131       .  S
Mg249       O263   2.252       .  S
Mg249       O251   2.310       .  S
C250       C2043   1.458       .  S
C250        O288   1.271       .  A
C250        O256   1.271       .  A
O251        C258   1.274       .  A
H252        C265   1.080       .  S
C253        H278   1.080       .  S
C253        O267   1.236       .  S
C253        O268   1.270       .  A
O254        C277   1.270       .  A
O255       Mg269   2.142       .  S
O256       Mg286   2.264       .  S
C257       C2104   1.464       .  S
C257        O270   1.269       .  A
C257        O262   1.271       .  A
C258       C2075   1.463       .  S
C258        O285   1.268       .  A
Mg259       O266   2.127       .  S
Mg259       O267   2.153       .  S
Mg259       O260   2.302       .  S
Mg259       O261   2.291       .  S
Mg259       O288   2.261       .  S
O261        C265   1.268       .  A
O262       Mg269   2.278       .  S
O263        C282   1.269       .  A
O264        C284   1.269       .  A
O264       Mg280   2.253       .  S
O266       Mg280   2.140       .  S
O266        C277   1.236       .  S
O267       Mg286   2.132       .  S
O268       Mg280   2.296       .  S
Mg269       O285   2.237       .  S
O270       Mg286   2.265       .  S
H271        C276   1.081       .  S
O272       Mg280   2.145       .  S
O272        C275   1.238       .  S
H273        C275   1.080       .  S
H274        C277   1.081       .  S
O279       Mg286   2.301       .  S
C282       C1963   1.464       .  S
C282        O287   1.275       .  A
O283        C284   1.271       .  A
C284       C1979   1.462       .  S
C289       C1947   1.466       .  S
C289        N290   1.350       .  A
C289        N294   1.351       .  A
N290        C291   1.356       .  A
C291       C1931   1.497       .  S
C291        N292   1.379       .  A
N292        C293   1.381       .  A
C293       C2443   1.489       .  S
C293        N294   1.356       .  A
C295       C2683   1.496       .  S
C295        N296   1.351       .  A
C295        N300   1.380       .  A
N296        C297   1.345       .  A
C297       C1912   1.461       .  S
C297        N298   1.350       .  A
N298        C299   1.360       .  A
C299       C1899   1.494       .  S
C299        N300   1.384       .  A
C301       C1864   1.500       .  S
C301        N302   1.362       .  A
C301        N306   1.385       .  A
N302        C303   1.353       .  A
C303       C1880   1.469       .  S
C303        N304   1.347       .  A
N304        C305   1.351       .  A
C305       C2459   1.496       .  S
C305        N306   1.380       .  A
C307       C1832   1.494       .  S
C307        N308   1.354       .  A
C307        N312   1.378       .  A
N308        C309   1.348       .  A
C309       C1851   1.457       .  S
C309        N310   1.348       .  A
N310        C311   1.354       .  A
C311       C2920   1.484       .  S
C311        N312   1.381       .  A
C313       C2123   1.486       .  S
C313        N314   1.375       .  A
C313        N318   1.353       .  A
N314        C315   1.377       .  A
C315       C2667   1.481       .  S
C315        N316   1.356       .  A
N316        C317   1.350       .  A
C317       C1816   1.461       .  S
C317        N318   1.349       .  A
C319       C2139   1.499       .  S
C319        N320   1.385       .  A
C319        N324   1.363       .  A
N320        C321   1.381       .  A
C321       C2936   1.502       .  S
C321        N322   1.352       .  A
N322        C323   1.345       .  A
C323       C1800   1.470       .  S
C323        N324   1.352       .  A
O325       Mg327   2.137       .  S
O325       Mg333   2.148       .  S
O325        C360   1.238       .  S
C326        H365   1.080       .  S
C326        O339   1.234       .  S
C326        O363   1.267       .  A
Mg327       O356   2.136       .  S
Mg327       O371   2.322       .  S
Mg327       O367   2.268       .  S
Mg327       O338   2.313       .  S
O328       Mg370   2.151       .  S
O328       Mg353   2.133       .  S
O328        C349   1.236       .  S
O329        C360   1.272       .  A
O329       Mg353   2.302       .  S
C330       C1848   1.457       .  S
C330        O332   1.266       .  A
C330        O344   1.273       .  A
O331        C359   1.268       .  A
O331       Mg333   2.286       .  S
O332       Mg364   2.203       .  S
Mg333       O339   2.124       .  S
Mg333       O347   2.233       .  S
Mg333       O335   2.273       .  S
C334       C1803   1.470       .  S
C334        O372   1.273       .  A
C334        O340   1.272       .  A
O335        C342   1.270       .  A
H336        C349   1.081       .  S
C337        H362   1.079       .  S
C337        O351   1.236       .  S
C337        O352   1.269       .  A
O338        C361   1.273       .  A
O339       Mg353   2.143       .  S
O340       Mg370   2.286       .  S
C341       C1819   1.465       .  S
C341        O354   1.270       .  A
C341        O346   1.276       .  A
C342       C1915   1.460       .  S
C342        O369   1.272       .  A
Mg343       O350   2.161       .  S
Mg343       O351   2.143       .  S
Mg343       O344   2.307       .  S
Mg343       O345   2.299       .  S
Mg343       O372   2.277       .  S
O345        C349   1.271       .  A
O346       Mg353   2.319       .  S
O347        C366   1.269       .  A
O348        C368   1.272       .  A
O348       Mg364   2.285       .  S
O350       Mg364   2.150       .  S
O350        C361   1.238       .  S
O351       Mg370   2.121       .  S
O352       Mg364   2.293       .  S
Mg353       O369   2.255       .  S
O354       Mg370   2.230       .  S
H355        C360   1.079       .  S
O356       Mg364   2.108       .  S
O356        C359   1.235       .  S
H357        C359   1.081       .  S
H358        C361   1.081       .  S
O363       Mg370   2.285       .  S
C366       C1944   1.467       .  S
C366        O371   1.276       .  A
O367        C368   1.271       .  A
C368       C1883   1.468       .  S
C373        C374   1.435       .  A
C373        C378   1.417   1_565  A
C373       C1835   1.509       .  S
C374        C375   1.419   1_565  A
C374       C1867   1.516       .  S
C375        C376   1.415       .  A
C375        H380   1.082       .  S
C376        C377   1.427       .  A
C376       C1771   1.512       .  S
C377        C378   1.416       .  A
C377       C1787   1.506       .  S
C378        H379   1.084       .  S
C381       C1739   1.498       .  S
C381        N382   1.383       .  A
C381        N386   1.359       .  A
N382        C383   1.381       .  A
C383       C2779   1.503       .  S
C383        N384   1.358       .  A
N384        C385   1.348       .  A
C385       C1755   1.473       .  S
C385        N386   1.351       .  A
C387       C1704   1.493       .  S
C387        N388   1.357       .  A
C387        N392   1.377       .  A
N388        C389   1.354       .  A
C389       C1723   1.464       .  S
C389        N390   1.349       .  A
N390        C391   1.354       .  A
C391       C2696   1.483       .  S
C391        N392   1.377       .  A
C393       C1784   1.490       .  S
C393        N394   1.362       .  A
C393        N398   1.378       .  A
N394        C395   1.354       .  A
C395       C1691   1.469       .  S
C395        N396   1.349       .  A
N396        C397   1.354       .  A
C397       C3128   1.489       .  S
C397        N398   1.374       .  A
C399       C1768   1.503       .  S
C399        N400   1.359       .  A
C399        N404   1.381       .  A
N400        C401   1.352       .  A
C401       C1675   1.462       .  S
C401        N402   1.347       .  A
N402        C403   1.353       .  A
C403       C2760   1.490       .  S
C403        N404   1.381       .  A
C405       C1640   1.482       .  S
C405        N406   1.373       .  A
C405        N410   1.357       .  A
N406        C407   1.371       .  A
C407       C3115   1.479       .  S
C407        N408   1.354       .  A
N408        C409   1.351       .  A
C409       C1656   1.465       .  S
C409        N410   1.354       .  A
C411       C1611   1.491       .  S
C411        N412   1.359       .  A
C411        N416   1.381       .  A
N412        C413   1.350       .  A
C413       C1627   1.467       .  S
C413        N414   1.348       .  A
N414        C415   1.354       .  A
C415       C2715   1.491       .  S
C415        N416   1.378       .  A
O417       Mg419   2.131       .  S
O417       Mg425   2.133       .  S
O417        C452   1.237       .  S
C418        H457   1.080       .  S
C418        O431   1.237       .  S
C418        O455   1.272       .  A
Mg419       O448   2.154       .  S
Mg419       O463   2.301       .  S
Mg419       O459   2.262       .  S
Mg419       O430   2.297       .  S
O420       Mg462   2.128       .  S
O420       Mg445   2.127       .  S
O420        C441   1.235       .  S
O421        C452   1.271       .  A
O421       Mg445   2.301       .  S
C422       C1624   1.464       .  S
C422        O424   1.269       .  A
C422        O436   1.273       .  A
O423        C451   1.273       .  A
O423       Mg425   2.308       .  S
O424       Mg456   2.253       .  S
Mg425       O431   2.144       .  S
Mg425       O439   2.261       .  S
Mg425       O427   2.291       .  S
C426       C1720   1.463       .  S
C426        O464   1.270       .  A
C426        O432   1.273       .  A
O427        C434   1.271       .  A
H428        C441   1.081       .  S
C429        H454   1.080       .  S
C429        O443   1.238       .  S
C429        O444   1.274       .  A
O430        C453   1.269       .  A
O431       Mg445   2.141       .  S
O432       Mg462   2.294       .  S
C433       C1752   1.473       .  S
C433        O446   1.273       .  A
C433        O438   1.273       .  A
C434       C1672   1.459       .  S
C434        O461   1.268       .  A
Mg435       O442   2.139       .  S
Mg435       O443   2.156       .  S
Mg435       O436   2.300       .  S
Mg435       O437   2.297       .  S
Mg435       O464   2.257       .  S
O437        C441   1.269       .  A
O438       Mg445   2.304       .  S
O439        C458   1.269       .  A
O440        C460   1.273       .  A
O440       Mg456   2.301       .  S
O442       Mg456   2.136       .  S
O442        C453   1.235       .  S
O443       Mg462   2.158       .  S
O444       Mg456   2.314       .  S
Mg445       O461   2.248       .  S
O446       Mg462   2.287       .  S
H447        C452   1.081       .  S
O448       Mg456   2.139       .  S
O448        C451   1.238       .  S
H449        C451   1.080       .  S
H450        C453   1.081       .  S
O455       Mg462   2.310       .  S
C458       C1688   1.467       .  S
C458        O463   1.274       .  A
O459        C460   1.271       .  A
C460       C1659   1.468       .  S
C465        C466   1.427       .  A
C465        C470   1.409       .  A
C465       C1992   1.507       .  S
C466        C467   1.414       .  A
C466       C2027   1.499       .  S
C467        C468   1.412   1_655  A
C467        H472   1.084       .  S
C468        C469   1.432       .  A
C468       C1608   1.514       .  S
C469        C470   1.417   1_455  A
C469       C1643   1.495       .  S
C470        H471   1.085       .  S
C473        C474   1.429       .  A
C473        C478   1.419       .  A
C473       C1736   1.509       .  S
C474        C475   1.409   1_556  A
C474       C1707   1.507       .  S
C475        C476   1.415       .  A
C475        H480   1.085       .  S
C476        C477   1.434       .  A
C476       C1592   1.508       .  S
C477        C478   1.422   1_554  A
C477       C1579   1.518       .  S
C478        H479   1.085       .  S
C481        C482   1.431       .  A
C481        C486   1.414       .  A
C481       C1560   1.504       .  S
C482        C483   1.413       .  A
C482       C1544   1.512       .  S
C483        C484   1.415   1_545  A
C483        H488   1.084       .  S
C484        C485   1.429       .  A
C484       C1528   1.507       .  S
C485        C486   1.413   1_565  A
C485       C1515   1.503       .  S
C486        H487   1.085       .  S
C489       C1595   1.495       .  S
C489        N490   1.376       .  A
C489        N494   1.354       .  A
N490        C491   1.379       .  A
C491       C3096   1.485       .  S
C491        N492   1.358       .  A
N492        C493   1.351       .  A
C493       C1496   1.465       .  S
C493        N494   1.350       .  A
C495       C1576   1.501       .  S
C495        N496   1.361       .  A
C495        N500   1.383       .  A
N496        C497   1.354       .  A
C497       C1483   1.468       .  S
C497        N498   1.348       .  A
N498        C499   1.353       .  A
C499       C3016   1.495       .  S
C499        N500   1.380       .  A
C501       C1563   1.492       .  S
C501        N502   1.353       .  A
C501        N506   1.379       .  A
N502        C503   1.347       .  A
C503       C1464   1.459       .  S
C503        N504   1.348       .  A
N504        C505   1.355       .  A
C505       C3032   1.487       .  S
C505        N506   1.381       .  A
C507       C1547   1.492       .  S
C507        N508   1.379       .  A
C507        N512   1.360       .  A
N508        C509   1.377       .  A
C509       C3147   1.491       .  S
C509        N510   1.356       .  A
N510        C511   1.351       .  A
C511       C1448   1.472       .  S
C511        N512   1.352       .  A
C513       C1416   1.493       .  S
C513        N514   1.378       .  A
C513        N518   1.359       .  A
N514        C515   1.377       .  A
C515       C3163   1.484       .  S
C515        N516   1.352       .  A
N516        C517   1.349       .  A
C517       C1435   1.463       .  S
C517        N518   1.353       .  A
C519       C1387   1.495       .  S
C519        N520   1.379       .  A
C519        N524   1.362       .  A
N520        C521   1.376       .  A
C521       C3083   1.490       .  S
C521        N522   1.352       .  A
N522        C523   1.349       .  A
C523       C1403   1.468       .  S
C523        N524   1.353       .  A
O525       Mg527   2.137       .  S
O525       Mg533   2.152       .  S
O525        C560   1.238       .  S
C526        H565   1.082       .  S
C526        O539   1.235       .  S
C526        O563   1.269       .  A
Mg527       O556   2.136       .  S
Mg527       O571   2.313       .  S
Mg527       O567   2.267       .  S
Mg527       O538   2.316       .  S
O528       Mg570   2.151       .  S
O528       Mg553   2.136       .  S
O528        C549   1.237       .  S
O529        C560   1.273       .  A
O529       Mg553   2.306       .  S
C530       C1467   1.455       .  S
C530        O532   1.267       .  A
C530        O544   1.271       .  A
O531        C559   1.268       .  A
O531       Mg533   2.294       .  S
O532       Mg564   2.236       .  S
Mg533       O539   2.128       .  S
Mg533       O547   2.242       .  S
Mg533       O535   2.280       .  S
C534       C1451   1.470       .  S
C534        O572   1.272       .  A
C534        O540   1.274       .  A
O535        C542   1.270       .  A
H536        C549   1.081       .  S
C537        H562   1.081       .  S
C537        O551   1.236       .  S
C537        O552   1.270       .  A
O538        C561   1.274       .  A
O539       Mg553   2.136       .  S
O540       Mg570   2.303       .  S
C541       C1432   1.461       .  S
C541        O554   1.270       .  A
C541        O546   1.271       .  A
C542       C1400   1.461       .  S
C542        O569   1.268       .  A
Mg543       O550   2.162       .  S
Mg543       O551   2.132       .  S
Mg543       O544   2.286       .  S
Mg543       O545   2.303       .  S
Mg543       O572   2.275       .  S
O545        C549   1.271       .  A
O546       Mg553   2.279       .  S
O547        C566   1.269       .  A
O548        C568   1.273       .  A
O548       Mg564   2.293       .  S
O550       Mg564   2.149       .  S
O550        C561   1.238       .  S
O551       Mg570   2.125       .  S
O552       Mg564   2.300       .  S
Mg553       O569   2.254       .  S
O554       Mg570   2.260       .  S
H555        C560   1.080       .  S
O556       Mg564   2.125       .  S
O556        C559   1.234       .  S
H557        C559   1.082       .  S
H558        C561   1.080       .  S
O563       Mg570   2.295       .  S
C566       C1499   1.465       .  S
C566        O571   1.275       .  A
O567        C568   1.270       .  A
C568       C1480   1.469       .  S
C573        C574   1.426       .  A
C573        C578   1.416       .  A
C573       C1419   1.503       .  S
C574        C575   1.416       .  A
C574       C1384   1.510       .  S
C575        C576   1.414   1_455  A
C575        H580   1.083       .  S
C576        C577   1.430       .  A
C576       C1368   1.507       .  S
C577        C578   1.419   1_655  A
C577       C1352   1.511       .  S
C578        H579   1.084       .  S
C581        C582   1.427       .  A
C581        C586   1.411   1_556  A
C581       C2056   1.503       .  S
C582        C583   1.419   1_556  A
C582       C2091   1.505       .  S
C583        C584   1.416       .  A
C583        H588   1.083       .  S
C584        C585   1.429       .  A
C584       C1323   1.515       .  S
C585        C586   1.407       .  A
C585       C1339   1.491       .  S
C586        H587   1.085       .  S
C589       C1371   1.492       .  S
C589        N590   1.353       .  A
C589        N594   1.383       .  A
N590        C591   1.349       .  A
C591       C1307   1.459       .  S
C591        N592   1.350       .  A
N592        C593   1.356       .  A
C593       C2587   1.502       .  S
C593        N594   1.383       .  A
C595       C1355   1.496       .  S
C595        N596   1.350       .  A
C595        N600   1.382       .  A
N596        C597   1.345       .  A
C597       C1288   1.467       .  S
C597        N598   1.352       .  A
N598        C599   1.362       .  A
C599       C2891   1.501       .  S
C599        N600   1.386       .  A
C601       C3003   1.492       .  S
C601        N602   1.379       .  A
C601        N606   1.359       .  A
N602        C603   1.377       .  A
C603       C1336   1.485       .  S
C603        N604   1.353       .  A
N604        C605   1.347       .  A
C605       C1272   1.462       .  S
C605        N606   1.352       .  A
C607       C2571   1.492       .  S
C607        N608   1.380       .  A
C607        N612   1.360       .  A
N608        C609   1.377       .  A
C609       C1320   1.491       .  S
C609        N610   1.353       .  A
N610        C611   1.349       .  A
C611       C1259   1.467       .  S
C611        N612   1.352       .  A
C613       C1227   1.488       .  S
C613        N614   1.348       .  A
C613        N618   1.375       .  A
N614        C615   1.344       .  A
C615       C1243   1.465       .  S
C615        N616   1.352       .  A
N616        C617   1.363       .  A
C617       C2987   1.491       .  S
C617        N618   1.381       .  A
C619       C1195   1.498       .  S
C619        N620   1.355       .  A
C619        N624   1.380       .  A
N620        C621   1.352       .  A
C621       C1211   1.468       .  S
C621        N622   1.355       .  A
N622        C623   1.358       .  A
C623       C2907   1.498       .  S
C623        N624   1.381       .  A
O625       Mg627   2.149       .  S
O625       Mg633   2.154       .  S
O625        C660   1.238       .  S
C626        H665   1.081       .  S
C626        O639   1.235       .  S
C626        O663   1.269       .  A
Mg627       O656   2.138       .  S
Mg627       O671   2.280       .  S
Mg627       O667   2.273       .  S
Mg627       O638   2.297       .  S
O628       Mg670   2.148       .  S
O628       Mg653   2.136       .  S
O628        C649   1.238       .  S
O629        C660   1.274       .  A
O629       Mg653   2.312       .  S
C630       C1275   1.462       .  S
C630        O632   1.270       .  A
C630        O644   1.269       .  A
O631        C659   1.268       .  A
O631       Mg633   2.291       .  S
O632       Mg664   2.266       .  S
Mg633       O639   2.130       .  S
Mg633       O647   2.258       .  S
Mg633       O635   2.300       .  S
C634       C1240   1.458       .  S
C634        O672   1.266       .  A
C634        O640   1.273       .  A
O635        C642   1.274       .  A
H636        C649   1.080       .  S
C637        H662   1.081       .  S
C637        O651   1.236       .  S
C637        O652   1.269       .  A
O638        C661   1.271       .  A
O639       Mg653   2.132       .  S
O640       Mg670   2.299       .  S
C641       C1208   1.467       .  S
C641        O654   1.270       .  A
C641        O646   1.274       .  A
C642       C1291   1.462       .  S
C642        O669   1.269       .  A
Mg643       O650   2.119       .  S
Mg643       O651   2.136       .  S
Mg643       O644   2.270       .  S
Mg643       O645   2.304       .  S
Mg643       O672   2.225       .  S
O645        C649   1.273       .  A
O646       Mg653   2.316       .  S
O647        C666   1.270       .  A
O648        C668   1.272       .  A
O648       Mg664   2.279       .  S
O650       Mg664   2.150       .  S
O650        C661   1.238       .  S
O651       Mg670   2.121       .  S
O652       Mg664   2.291       .  S
Mg653       O669   2.245       .  S
O654       Mg670   2.247       .  S
H655        C660   1.081       .  S
O656       Mg664   2.116       .  S
O656        C659   1.235       .  S
H657        C659   1.080       .  S
H658        C661   1.081       .  S
O663       Mg670   2.298       .  S
C666       C1304   1.461       .  S
C666        O671   1.272       .  A
O667        C668   1.272       .  A
C668       C1256   1.463       .  S
C673        C674   1.430       .  A
C673        C678   1.415       .  A
C673       C1192   1.523       .  S
C674        C675   1.413       .  A
C674       C1224   1.494       .  S
C675        C676   1.415   1_545  A
C675        H680   1.082       .  S
C676        C677   1.432       .  A
C676       C1176   1.522       .  S
C677        C678   1.420   1_565  A
C677       C1160   1.501       .  S
C678        H679   1.084       .  S
C681       C1163   1.489       .  S
C681        N682   1.378       .  A
C681        N686   1.351       .  A
N682        C683   1.381       .  A
C683       C2827   1.481       .  S
C683        N684   1.355       .  A
N684        C685   1.347       .  A
C685       C1147   1.455       .  S
C685        N686   1.345       .  A
C687       C1179   1.507       .  S
C687        N688   1.389       .  A
C687        N692   1.361       .  A
N688        C689   1.385       .  A
C689       C2616   1.502       .  S
C689        N690   1.352       .  A
N690        C691   1.343       .  A
C691       C1131   1.465       .  S
C691        N692   1.348       .  A
C693       C1096   1.503       .  S
C693        N694   1.385       .  A
C693        N698   1.361       .  A
N694        C695   1.382       .  A
C695       C2843   1.499       .  S
C695        N696   1.354       .  A
N696        C697   1.348       .  A
C697       C1115   1.468       .  S
C697        N698   1.350       .  A
C699       C1064   1.492       .  S
C699        N700   1.377       .  A
C699        N704   1.357       .  A
N700        C701   1.378       .  A
C701       C2539   1.481       .  S
C701        N702   1.353       .  A
N702        C703   1.349       .  A
C703       C1080   1.463       .  S
C703        N704   1.351       .  A
C705       C2187   1.502       .  S
C705        N706   1.352       .  A
C705        N710   1.384       .  A
N706        C707   1.346       .  A
C707       C1048   1.458       .  S
C707        N708   1.346       .  A
N708        C709   1.355       .  A
C709       C2603   1.493       .  S
C709        N710   1.387       .  A
C711       C2200   1.494       .  S
C711        N712   1.381       .  A
C711        N716   1.356       .  A
N712        C713   1.381       .  A
C713       C2552   1.494       .  S
C713        N714   1.355       .  A
N714        C715   1.350       .  A
C715       C1035   1.464       .  S
C715        N716   1.349       .  A
O717       Mg719   2.119       .  S
O717       Mg725   2.134       .  S
O717        C752   1.237       .  S
C718        H757   1.081       .  S
C718        O731   1.238       .  S
C718        O755   1.272       .  A
Mg719       O748   2.152       .  S
Mg719       O763   2.293       .  S
Mg719       O759   2.248       .  S
Mg719       O730   2.297       .  S
O720       Mg762   2.140       .  S
O720       Mg745   2.125       .  S
O720        C741   1.236       .  S
O721        C752   1.270       .  A
O721       Mg745   2.298       .  S
C722       C1128   1.463       .  S
C722        O724   1.270       .  A
C722        O736   1.272       .  A
O723        C751   1.272       .  A
O723       Mg725   2.304       .  S
O724       Mg756   2.261       .  S
Mg725       O731   2.128       .  S
Mg725       O739   2.260       .  S
Mg725       O727   2.286       .  S
C726       C1051   1.457       .  S
C726        O764   1.269       .  A
C726        O732   1.272       .  A
O727        C734   1.272       .  A
H728        C741   1.080       .  S
C729        H754   1.080       .  S
C729        O743   1.236       .  S
C729        O744   1.270       .  A
O730        C753   1.270       .  A
O731       Mg745   2.142       .  S
O732       Mg762   2.284       .  S
C733       C1032   1.459       .  S
C733        O746   1.270       .  A
C733        O738   1.272       .  A
C734       C1083   1.462       .  S
C734        O761   1.270       .  A
Mg735       O742   2.123       .  S
Mg735       O743   2.146       .  S
Mg735       O736   2.293       .  S
Mg735       O737   2.296       .  S
Mg735       O764   2.248       .  S
O737        C741   1.269       .  A
O738       Mg745   2.281       .  S
O739        C758   1.270       .  A
O740        C760   1.271       .  A
O740       Mg756   2.270       .  S
O742       Mg756   2.141       .  S
O742        C753   1.236       .  S
O743       Mg762   2.127       .  S
O744       Mg756   2.296       .  S
Mg745       O761   2.265       .  S
O746       Mg762   2.258       .  S
H747        C752   1.082       .  S
O748       Mg756   2.139       .  S
O748        C751   1.238       .  S
H749        C751   1.081       .  S
H750        C753   1.081       .  S
O755       Mg762   2.302       .  S
C758       C1112   1.464       .  S
C758        O763   1.272       .  A
O759        C760   1.268       .  A
C760       C1144   1.457       .  S
C765        C766   1.429       .  A
C765        C770   1.413       .  A
C765       C1067   1.501       .  S
C766        C767   1.417       .  A
C766       C1099   1.514       .  S
C767        C768   1.419   1_655  A
C767        H772   1.082       .  S
C768        C769   1.431       .  A
C768       C1003   1.512       .  S
C769        C770   1.410   1_455  A
C769       C1019   1.504       .  S
C770        H771   1.085       .  S
C773       C1531   1.489       .  S
C773        N774   1.376       .  A
C773        N778   1.354       .  A
N774        C775   1.377       .  A
C775       C2968   1.490       .  S
C775        N776   1.358       .  A
N776        C777   1.354       .  A
C777        C987   1.466       .  S
C777        N778   1.353       .  A
C779       C1512   1.492       .  S
C779        N780   1.360       .  A
C779        N784   1.384       .  A
N780        C781   1.351       .  A
C781        C971   1.464       .  S
C781        N782   1.345       .  A
N782        C783   1.352       .  A
C783       C2635   1.496       .  S
C783        N784   1.380       .  A
C785       C3051   1.491       .  S
C785        N786   1.351       .  A
C785        N790   1.379       .  A
N786        C787   1.345       .  A
C787        C955   1.465       .  S
C787        N788   1.352       .  A
N788        C789   1.361       .  A
C789        C939   1.496       .  S
C789        N790   1.382       .  A
C791       C1016   1.506       .  S
C791        N792   1.353       .  A
C791        N796   1.383       .  A
N792        C793   1.348       .  A
C793        C923   1.462       .  S
C793        N794   1.348       .  A
N794        C795   1.356       .  A
C795       C3067   1.492       .  S
C795        N796   1.386       .  A
C797       C1000   1.491       .  S
C797        N798   1.353       .  A
C797        N802   1.381       .  A
N798        C799   1.346       .  A
C799        C907   1.462       .  S
C799        N800   1.348       .  A
N800        C801   1.357       .  A
C801       C2955   1.492       .  S
C801        N802   1.381       .  A
C803        C891   1.458       .  S
C803        N804   1.350       .  A
C803        N808   1.348       .  A
N804        C805   1.357       .  A
C805       C2651   1.488       .  S
C805        N806   1.382       .  A
N806        C807   1.379       .  A
C807        C872   1.495       .  S
C807        N808   1.351       .  A
O809       Mg811   2.115       .  S
O809       Mg817   2.141       .  S
O809        C844   1.235       .  S
C810        H849   1.081       .  S
C810        O823   1.236       .  S
C810        O847   1.269       .  A
Mg811       O840   2.150       .  S
Mg811       O855   2.305       .  S
Mg811       O851   2.237       .  S
Mg811       O822   2.300       .  S
O812       Mg854   2.150       .  S
O812       Mg837   2.119       .  S
O812        C833   1.234       .  S
O813        C844   1.267       .  A
O813       Mg837   2.282       .  S
C814        C952   1.467       .  S
C814        O816   1.269       .  A
C814        O828   1.273       .  A
O815        C843   1.272       .  A
O815       Mg817   2.298       .  S
O816       Mg848   2.248       .  S
Mg817       O823   2.109       .  S
Mg817       O831   2.220       .  S
Mg817       O819   2.309       .  S
C818        C888   1.457       .  S
C818        O856   1.269       .  A
C818        O824   1.272       .  A
O819        C826   1.274       .  A
H820        C833   1.081       .  S
C821        H846   1.081       .  S
C821        O835   1.238       .  S
C821        O836   1.273       .  A
O822        C845   1.270       .  A
O823       Mg837   2.144       .  S
O824       Mg854   2.295       .  S
C825        C968   1.464       .  S
C825        O838   1.274       .  A
C825        O830   1.271       .  A
C826        C984   1.467       .  S
C826        O853   1.271       .  A
Mg827       O834   2.123       .  S
Mg827       O835   2.152       .  S
Mg827       O828   2.303       .  S
Mg827       O829   2.291       .  S
Mg827       O856   2.222       .  S
O829        C833   1.268       .  A
O830       Mg837   2.274       .  S
O831        C850   1.268       .  A
O832        C852   1.273       .  A
O832       Mg848   2.303       .  S
O834       Mg848   2.135       .  S
O834        C845   1.236       .  S
O835       Mg854   2.161       .  S
O836       Mg848   2.312       .  S
Mg837       O853   2.245       .  S
O838       Mg854   2.274       .  S
H839        C844   1.079       .  S
O840       Mg848   2.134       .  S
O840        C843   1.238       .  S
H841        C843   1.081       .  S
H842        C845   1.082       .  S
O847       Mg854   2.287       .  S
C850        C904   1.460       .  S
C850        O855   1.274       .  A
O851        C852   1.269       .  A
C852        C920   1.461       .  S
C857        C858   1.430       .  A
C857        C862   1.416       .  A
C857       C1896   1.511       .  S
C858        C859   1.411       .  A
C858       C1928   1.502       .  S
C859        C860   1.414   1_556  A
C859        H864   1.085       .  S
C860        C861   1.431       .  A
C860        C875   1.502       .  S
C861        C862   1.416   1_554  A
C861        C936   1.512       .  S
C862        H863   1.083       .  S
C865        C870   1.377       .  A
C865        C866   1.413       .  A
C865        O871   1.320       .  A
C866        C867   1.409       .  A
C866        H877   1.082       .  S
C867        C876   1.377       .  A
C867        C868   1.377       .  A
C868        C869   1.415       .  A
C868        O874   1.322       .  A
C869        C870   1.410       .  A
C869        H878   1.081       .  S
C870        C873   1.381       .  A
O871        C872   1.338       .  A
C872        C873   1.397       .  A
C873        H879   1.082       .  S
O874        C875   1.338       .  A
C875        C876   1.398       .  A
C876        H880   1.082       .  S
C881        C886   1.381       .  A
C881        C882   1.404       .  A
C881        O887   1.319       .  A
C882        C883   1.403       .  A
C882        H893   1.082       .  S
C883        C892   1.363       .  A
C883        C884   1.382       .  A
C884        C885   1.394       .  A
C884        O890   1.309       .  A
C885        C886   1.392       .  A
C885        H894   1.082       .  S
C886        C889   1.349       .  A
O887        C888   1.331       .  A
C888        C889   1.386       .  A
C889        H895   1.083       .  S
O890        C891   1.326       .  A
C891        C892   1.392       .  A
C892        H896   1.082       .  S
C897        C902   1.382       .  A
C897        C898   1.399       .  A
C897        O903   1.317       .  A
C898        C899   1.400       .  A
C898        H909   1.082       .  S
C899        C908   1.357       .  A
C899        C900   1.382       .  A
C900        C901   1.399       .  A
C900        O906   1.316       .  A
C901        C902   1.399       .  A
C901        H910   1.082       .  S
C902        C905   1.355       .  A
O903        C904   1.328       .  A
C904        C905   1.389       .  A
C905        H911   1.083       .  S
O906        C907   1.328       .  A
C907        C908   1.390       .  A
C908        H912   1.082       .  S
C913        C918   1.381       .  A
C913        C914   1.395       .  A
C913        O919   1.312       .  A
C914        C915   1.394       .  A
C914        H925   1.083       .  S
C915        C924   1.352       .  A
C915        C916   1.381       .  A
C916        C917   1.405       .  A
C916        O922   1.319       .  A
C917        C918   1.404       .  A
C917        H926   1.083       .  S
C918        C921   1.364       .  A
O919        C920   1.326       .  A
C920        C921   1.393       .  A
C921        H927   1.083       .  S
O922        C923   1.331       .  A
C923        C924   1.387       .  A
C924        H928   1.083       .  S
C929        C934   1.376       .  A
C929        C930   1.415       .  A
C929        O935   1.322       .  A
C930        C931   1.411       .  A
C930        H941   1.082       .  S
C931        C940   1.380       .  A
C931        C932   1.377       .  A
C932        C933   1.414       .  A
C932        O938   1.322       .  A
C933        C934   1.410       .  A
C933        H942   1.082       .  S
C934        C937   1.378       .  A
O935        C936   1.340       .  A
C936        C937   1.399       .  A
C937        H943   1.081       .  S
O938        C939   1.338       .  A
C939        C940   1.397       .  A
C940        H944   1.082       .  S
C945        C950   1.381       .  A
C945        C946   1.404       .  A
C945        O951   1.318       .  A
C946        C947   1.402       .  A
C946        H957   1.082       .  S
C947        C956   1.364       .  A
C947        C948   1.381       .  A
C948        C949   1.401       .  A
C948        O954   1.314       .  A
C949        C950   1.399       .  A
C949        H958   1.083       .  S
C950        C953   1.359       .  A
O951        C952   1.331       .  A
C952        C953   1.391       .  A
C953        H959   1.083       .  S
O954        C955   1.329       .  A
C955        C956   1.390       .  A
C956        H960   1.082       .  S
C961        C966   1.381       .  A
C961        C962   1.404       .  A
C961        O967   1.316       .  A
C962        C963   1.401       .  A
C962        H973   1.082       .  S
C963        C972   1.365       .  A
C963        C964   1.381       .  A
C964        C965   1.400       .  A
C964        O970   1.313       .  A
C965        C966   1.398       .  A
C965        H974   1.082       .  S
C966        C969   1.360       .  A
O967        C968   1.331       .  A
C968        C969   1.388       .  A
C969        H975   1.083       .  S
O970        C971   1.328       .  A
C971        C972   1.391       .  A
C972        H976   1.082       .  S
C977        C982   1.381       .  A
C977        C978   1.405       .  A
C977        O983   1.320       .  A
C978        C979   1.404       .  A
C978        H989   1.083       .  S
C979        C988   1.363       .  A
C979        C980   1.381       .  A
C980        C981   1.399       .  A
C980        O986   1.315       .  A
C981        C982   1.398       .  A
C981        H990   1.083       .  S
C982        C985   1.356       .  A
O983        C984   1.331       .  A
C984        C985   1.389       .  A
C985        H991   1.083       .  S
O986        C987   1.328       .  A
C987        C988   1.392       .  A
C988        H992   1.083       .  S
C993        C998   1.377       .  A
C993        C994   1.411       .  A
C993        O999   1.317       .  A
C994        C995   1.407       .  A
C994       H1005   1.083       .  S
C995       C1004   1.377       .  A
C995        C996   1.375       .  A
C996        C997   1.415       .  A
C996       O1002   1.321       .  A
C997        C998   1.410       .  A
C997       H1006   1.082       .  S
C998       C1001   1.382       .  A
O999       C1000   1.336       .  A
C1000      C1001   1.397       .  A
C1001      H1007   1.082       .  S
O1002      C1003   1.341       .  A
C1003      C1004   1.399       .  A
C1004      H1008   1.081       .  S
C1009      C1014   1.378       .  A
C1009      C1010   1.417       .  A
C1009      O1015   1.339       .  A
C1010      C1011   1.420       .  A
C1010      H1021   1.082       .  S
C1011      C1020   1.372       .  A
C1011      C1012   1.378       .  A
C1012      C1013   1.408       .  A
C1012      O1018   1.330       .  A
C1013      C1014   1.411       .  A
C1013      H1022   1.083       .  S
C1014      C1017   1.360       .  A
O1015      C1016   1.340       .  A
C1016      C1017   1.399       .  A
C1017      H1023   1.083       .  S
O1018      C1019   1.336       .  A
C1019      C1020   1.403       .  A
C1020      H1024   1.082       .  S
C1025      C1030   1.382       .  A
C1025      C1026   1.398       .  A
C1025      O1031   1.313       .  A
C1026      C1027   1.396       .  A
C1026      H1037   1.083       .  S
C1027      C1036   1.356       .  A
C1027      C1028   1.381       .  A
C1028      C1029   1.403       .  A
C1028      O1034   1.318       .  A
C1029      C1030   1.402       .  A
C1029      H1038   1.083       .  S
C1030      C1033   1.362       .  A
O1031      C1032   1.327       .  A
C1032      C1033   1.390       .  A
C1033      H1039   1.083       .  S
O1034      C1035   1.330       .  A
C1035      C1036   1.388       .  A
C1036      H1040   1.083       .  S
C1041      C1046   1.381       .  A
C1041      C1042   1.402       .  A
C1041      O1047   1.317       .  A
C1042      C1043   1.402       .  A
C1042      H1053   1.083       .  S
C1043      C1052   1.361       .  A
C1043      C1044   1.382       .  A
C1044      C1045   1.396       .  A
C1044      O1050   1.312       .  A
C1045      C1046   1.395       .  A
C1045      H1054   1.083       .  S
C1046      C1049   1.352       .  A
O1047      C1048   1.330       .  A
C1048      C1049   1.387       .  A
C1049      H1055   1.083       .  S
O1050      C1051   1.326       .  A
C1051      C1052   1.391       .  A
C1052      H1056   1.083       .  S
C1057      C1062   1.378       .  A
C1057      C1058   1.411       .  A
C1057      O1063   1.319       .  A
C1058      C1059   1.406       .  A
C1058      H1069   1.082       .  S
C1059      C1068   1.374       .  A
C1059      C1060   1.376       .  A
C1060      C1061   1.414       .  A
C1060      O1066   1.321       .  A
C1061      C1062   1.410       .  A
C1061      H1070   1.082       .  S
C1062      C1065   1.380       .  A
O1063      C1064   1.336       .  A
C1064      C1065   1.397       .  A
C1065      H1071   1.082       .  S
O1066      C1067   1.339       .  A
C1067      C1068   1.396       .  A
C1068      H1072   1.082       .  S
C1073      C1078   1.381       .  A
C1073      C1074   1.399       .  A
C1073      O1079   1.316       .  A
C1074      C1075   1.399       .  A
C1074      H1085   1.083       .  S
C1075      C1084   1.355       .  A
C1075      C1076   1.381       .  A
C1076      C1077   1.402       .  A
C1076      O1082   1.319       .  A
C1077      C1078   1.402       .  A
C1077      H1086   1.082       .  S
C1078      C1081   1.359       .  A
O1079      C1080   1.328       .  A
C1080      C1081   1.391       .  A
C1081      H1087   1.083       .  S
O1082      C1083   1.330       .  A
C1083      C1084   1.389       .  A
C1084      H1088   1.083       .  S
C1089      C1094   1.379       .  A
C1089      C1090   1.413       .  A
C1089      O1095   1.336       .  A
C1090      C1091   1.417       .  A
C1090      H1101   1.082       .  S
C1091      C1100   1.367       .  A
C1091      C1092   1.378       .  A
C1092      C1093   1.410       .  A
C1092      O1098   1.333       .  A
C1093      C1094   1.414       .  A
C1093      H1102   1.082       .  S
C1094      C1097   1.364       .  A
O1095      C1096   1.338       .  A
C1096      C1097   1.399       .  A
C1097      H1103   1.083       .  S
O1098      C1099   1.337       .  A
C1099      C1100   1.403       .  A
C1100      H1104   1.082       .  S
C1105      C1110   1.382       .  A
C1105      C1106   1.399       .  A
C1105      O1111   1.315       .  A
C1106      C1107   1.399       .  A
C1106      H1117   1.083       .  S
C1107      C1116   1.357       .  A
C1107      C1108   1.381       .  A
C1108      C1109   1.404       .  A
C1108      O1114   1.320       .  A
C1109      C1110   1.403       .  A
C1109      H1118   1.082       .  S
C1110      C1113   1.363       .  A
O1111      C1112   1.328       .  A
C1112      C1113   1.391       .  A
C1113      H1119   1.083       .  S
O1114      C1115   1.331       .  A
C1115      C1116   1.390       .  A
C1116      H1120   1.083       .  S
C1121      C1126   1.381       .  A
C1121      C1122   1.399       .  A
C1121      O1127   1.316       .  A
C1122      C1123   1.399       .  A
C1122      H1133   1.083       .  S
C1123      C1132   1.355       .  A
C1123      C1124   1.381       .  A
C1124      C1125   1.402       .  A
C1124      O1130   1.319       .  A
C1125      C1126   1.402       .  A
C1125      H1134   1.083       .  S
C1126      C1129   1.361       .  A
O1127      C1128   1.329       .  A
C1128      C1129   1.391       .  A
C1129      H1135   1.083       .  S
O1130      C1131   1.330       .  A
C1131      C1132   1.390       .  A
C1132      H1136   1.083       .  S
C1137      C1142   1.381       .  A
C1137      C1138   1.403       .  A
C1137      O1143   1.317       .  A
C1138      C1139   1.402       .  A
C1138      H1149   1.083       .  S
C1139      C1148   1.362       .  A
C1139      C1140   1.382       .  A
C1140      C1141   1.395       .  A
C1140      O1146   1.310       .  A
C1141      C1142   1.393       .  A
C1141      H1150   1.083       .  S
C1142      C1145   1.352       .  A
O1143      C1144   1.330       .  A
C1144      C1145   1.387       .  A
C1145      H1151   1.083       .  S
O1146      C1147   1.326       .  A
C1147      C1148   1.390       .  A
C1148      H1152   1.083       .  S
C1153      C1158   1.376       .  A
C1153      C1154   1.415       .  A
C1153      O1159   1.320       .  A
C1154      C1155   1.410       .  A
C1154      H1165   1.083       .  S
C1155      C1164   1.383       .  A
C1155      C1156   1.377       .  A
C1156      C1157   1.408       .  A
C1156      O1162   1.314       .  A
C1157      C1158   1.403       .  A
C1157      H1166   1.083       .  S
C1158      C1161   1.373       .  A
O1159      C1160   1.339       .  A
C1160      C1161   1.395       .  A
C1161      H1167   1.082       .  S
O1162      C1163   1.335       .  A
C1163      C1164   1.397       .  A
C1164      H1168   1.082       .  S
C1169      C1174   1.377       .  A
C1169      C1170   1.410       .  A
C1169      O1175   1.335       .  A
C1170      C1171   1.415       .  A
C1170      H1181   1.082       .  S
C1171      C1180   1.362       .  A
C1171      C1172   1.379       .  A
C1172      C1173   1.412       .  A
C1172      O1178   1.338       .  A
C1173      C1174   1.417       .  A
C1173      H1182   1.082       .  S
C1174      C1177   1.364       .  A
O1175      C1176   1.338       .  A
C1176      C1177   1.406       .  A
C1177      H1183   1.082       .  S
O1178      C1179   1.338       .  A
C1179      C1180   1.401       .  A
C1180      H1184   1.083       .  S
C1185      C1190   1.374       .  A
C1185      C1186   1.415       .  A
C1185      O1191   1.324       .  A
C1186      C1187   1.412       .  A
C1186      H1197   1.083       .  S
C1187      C1196   1.379       .  A
C1187      C1188   1.377       .  A
C1188      C1189   1.416       .  A
C1188      O1194   1.326       .  A
C1189      C1190   1.413       .  A
C1189      H1198   1.083       .  S
C1190      C1193   1.380       .  A
O1191      C1192   1.341       .  A
C1192      C1193   1.403       .  A
C1193      H1199   1.080       .  S
O1194      C1195   1.339       .  A
C1195      C1196   1.398       .  A
C1196      H1200   1.083       .  S
C1201      C1206   1.381       .  A
C1201      C1202   1.404       .  A
C1201      O1207   1.319       .  A
C1202      C1203   1.403       .  A
C1202      H1213   1.083       .  S
C1203      C1212   1.363       .  A
C1203      C1204   1.381       .  A
C1204      C1205   1.401       .  A
C1204      O1210   1.316       .  A
C1205      C1206   1.400       .  A
C1205      H1214   1.083       .  S
C1206      C1209   1.359       .  A
O1207      C1208   1.331       .  A
C1208      C1209   1.390       .  A
C1209      H1215   1.083       .  S
O1210      C1211   1.330       .  A
C1211      C1212   1.392       .  A
C1212      H1216   1.083       .  S
C1217      C1222   1.377       .  A
C1217      C1218   1.416       .  A
C1217      O1223   1.322       .  A
C1218      C1219   1.411       .  A
C1218      H1229   1.082       .  S
C1219      C1228   1.383       .  A
C1219      C1220   1.377       .  A
C1220      C1221   1.406       .  A
C1220      O1226   1.312       .  A
C1221      C1222   1.401       .  A
C1221      H1230   1.082       .  S
C1222      C1225   1.369       .  A
O1223      C1224   1.339       .  A
C1224      C1225   1.393       .  A
C1225      H1231   1.082       .  S
O1226      C1227   1.334       .  A
C1227      C1228   1.398       .  A
C1228      H1232   1.082       .  S
C1233      C1238   1.382       .  A
C1233      C1234   1.395       .  A
C1233      O1239   1.315       .  A
C1234      C1235   1.396       .  A
C1234      H1245   1.082       .  S
C1235      C1244   1.350       .  A
C1235      C1236   1.381       .  A
C1236      C1237   1.403       .  A
C1236      O1242   1.322       .  A
C1237      C1238   1.404       .  A
C1237      H1246   1.082       .  S
C1238      C1241   1.359       .  A
O1239      C1240   1.326       .  A
C1240      C1241   1.392       .  A
C1241      H1247   1.083       .  S
O1242      C1243   1.331       .  A
C1243      C1244   1.389       .  A
C1244      H1248   1.083       .  S
C1249      C1254   1.381       .  A
C1249      C1250   1.398       .  A
C1249      O1255   1.314       .  A
C1250      C1251   1.397       .  A
C1250      H1261   1.083       .  S
C1251      C1260   1.355       .  A
C1251      C1252   1.381       .  A
C1252      C1253   1.404       .  A
C1252      O1258   1.320       .  A
C1253      C1254   1.404       .  A
C1253      H1262   1.082       .  S
C1254      C1257   1.363       .  A
O1255      C1256   1.328       .  A
C1256      C1257   1.392       .  A
C1257      H1263   1.083       .  S
O1258      C1259   1.331       .  A
C1259      C1260   1.389       .  A
C1260      H1264   1.083       .  S
C1265      C1270   1.381       .  A
C1265      C1266   1.402       .  A
C1265      O1271   1.315       .  A
C1266      C1267   1.400       .  A
C1266      H1277   1.083       .  S
C1267      C1276   1.362       .  A
C1267      C1268   1.381       .  A
C1268      C1269   1.401       .  A
C1268      O1274   1.314       .  A
C1269      C1270   1.399       .  A
C1269      H1278   1.083       .  S
C1270      C1273   1.361       .  A
O1271      C1272   1.330       .  A
C1272      C1273   1.389       .  A
C1273      H1279   1.083       .  S
O1274      C1275   1.329       .  A
C1275      C1276   1.390       .  A
C1276      H1280   1.083       .  S
C1281      C1286   1.381       .  A
C1281      C1282   1.403       .  A
C1281      O1287   1.321       .  A
C1282      C1283   1.404       .  A
C1282      H1293   1.083       .  S
C1283      C1292   1.360       .  A
C1283      C1284   1.382       .  A
C1284      C1285   1.398       .  A
C1284      O1290   1.315       .  A
C1285      C1286   1.398       .  A
C1285      H1294   1.083       .  S
C1286      C1289   1.353       .  A
O1287      C1288   1.330       .  A
C1288      C1289   1.390       .  A
C1289      H1295   1.083       .  S
O1290      C1291   1.328       .  A
C1291      C1292   1.392       .  A
C1292      H1296   1.083       .  S
C1297      C1302   1.381       .  A
C1297      C1298   1.401       .  A
C1297      O1303   1.317       .  A
C1298      C1299   1.401       .  A
C1298      H1309   1.083       .  S
C1299      C1308   1.359       .  A
C1299      C1300   1.382       .  A
C1300      C1301   1.399       .  A
C1300      O1306   1.315       .  A
C1301      C1302   1.398       .  A
C1301      H1310   1.083       .  S
C1302      C1305   1.356       .  A
O1303      C1304   1.329       .  A
C1304      C1305   1.390       .  A
C1305      H1311   1.083       .  S
O1306      C1307   1.328       .  A
C1307      C1308   1.390       .  A
C1308      H1312   1.083       .  S
C1313      C1318   1.378       .  A
C1313      C1314   1.408       .  A
C1313      O1319   1.317       .  A
C1314      C1315   1.404       .  A
C1314      H1325   1.082       .  S
C1315      C1324   1.370       .  A
C1315      C1316   1.374       .  A
C1316      C1317   1.418       .  A
C1316      O1322   1.325       .  A
C1317      C1318   1.414       .  A
C1317      H1326   1.082       .  S
C1318      C1321   1.383       .  A
O1319      C1320   1.334       .  A
C1320      C1321   1.399       .  A
C1321      H1327   1.082       .  S
O1322      C1323   1.342       .  A
C1323      C1324   1.398       .  A
C1324      H1328   1.076       .  S
C1329      C1334   1.378       .  A
C1329      C1330   1.406       .  A
C1329      O1335   1.318       .  A
C1330      C1331   1.403       .  A
C1330      H1341   1.083       .  S
C1331      C1340   1.365       .  A
C1331      C1332   1.377       .  A
C1332      C1333   1.416       .  A
C1332      O1338   1.328       .  A
C1333      C1334   1.414       .  A
C1333      H1342   1.082       .  S
C1334      C1337   1.379       .  A
O1335      C1336   1.334       .  A
C1336      C1337   1.398       .  A
C1337      H1343   1.082       .  S
O1338      C1339   1.339       .  A
C1339      C1340   1.393       .  A
C1340      H1344   1.083       .  S
C1345      C1350   1.375       .  A
C1345      C1346   1.418       .  A
C1345      O1351   1.325       .  A
C1346      C1347   1.414       .  A
C1346      H1357   1.082       .  S
C1347      C1356   1.386       .  A
C1347      C1348   1.377       .  A
C1348      C1349   1.411       .  A
C1348      O1354   1.318       .  A
C1349      C1350   1.406       .  A
C1349      H1358   1.082       .  S
C1350      C1353   1.374       .  A
O1351      C1352   1.341       .  A
C1352      C1353   1.398       .  A
C1353      H1359   1.081       .  S
O1354      C1355   1.337       .  A
C1355      C1356   1.399       .  A
C1356      H1360   1.082       .  S
C1361      C1366   1.377       .  A
C1361      C1362   1.417       .  A
C1361      O1367   1.334       .  A
C1362      C1363   1.419       .  A
C1362      H1373   1.082       .  S
C1363      C1372   1.376       .  A
C1363      C1364   1.377       .  A
C1364      C1365   1.409       .  A
C1364      O1370   1.326       .  A
C1365      C1366   1.409       .  A
C1365      H1374   1.082       .  S
C1366      C1369   1.365       .  A
O1367      C1368   1.340       .  A
C1368      C1369   1.397       .  A
C1369      H1375   1.083       .  S
O1370      C1371   1.337       .  A
C1371      C1372   1.402       .  A
C1372      H1376   1.082       .  S
C1377      C1382   1.378       .  A
C1377      C1378   1.411       .  A
C1377      O1383   1.332       .  A
C1378      C1379   1.414       .  A
C1378      H1389   1.082       .  S
C1379      C1388   1.366       .  A
C1379      C1380   1.379       .  A
C1380      C1381   1.408       .  A
C1380      O1386   1.330       .  A
C1381      C1382   1.411       .  A
C1381      H1390   1.083       .  S
C1382      C1385   1.362       .  A
O1383      C1384   1.338       .  A
C1384      C1385   1.400       .  A
C1385      H1391   1.082       .  S
O1386      C1387   1.334       .  A
C1387      C1388   1.399       .  A
C1388      H1392   1.083       .  S
C1393      C1398   1.382       .  A
C1393      C1394   1.398       .  A
C1393      O1399   1.315       .  A
C1394      C1395   1.398       .  A
C1394      H1405   1.083       .  S
C1395      C1404   1.355       .  A
C1395      C1396   1.381       .  A
C1396      C1397   1.403       .  A
C1396      O1402   1.320       .  A
C1397      C1398   1.403       .  A
C1397      H1406   1.083       .  S
C1398      C1401   1.361       .  A
O1399      C1400   1.328       .  A
C1400      C1401   1.391       .  A
C1401      H1407   1.083       .  S
O1402      C1403   1.331       .  A
C1403      C1404   1.390       .  A
C1404      H1408   1.083       .  S
C1409      C1414   1.378       .  A
C1409      C1410   1.412       .  A
C1409      O1415   1.322       .  A
C1410      C1411   1.409       .  A
C1410      H1421   1.083       .  S
C1411      C1420   1.374       .  A
C1411      C1412   1.377       .  A
C1412      C1413   1.414       .  A
C1412      O1418   1.325       .  A
C1413      C1414   1.411       .  A
C1413      H1422   1.083       .  S
C1414      C1417   1.378       .  A
O1415      C1416   1.336       .  A
C1416      C1417   1.397       .  A
C1417      H1423   1.083       .  S
O1418      C1419   1.338       .  A
C1419      C1420   1.397       .  A
C1420      H1424   1.083       .  S
C1425      C1430   1.381       .  A
C1425      C1426   1.400       .  A
C1425      O1431   1.317       .  A
C1426      C1427   1.400       .  A
C1426      H1437   1.082       .  S
C1427      C1436   1.357       .  A
C1427      C1428   1.381       .  A
C1428      C1429   1.400       .  A
C1428      O1434   1.318       .  A
C1429      C1430   1.400       .  A
C1429      H1438   1.083       .  S
C1430      C1433   1.357       .  A
O1431      C1432   1.329       .  A
C1432      C1433   1.390       .  A
C1433      H1439   1.083       .  S
O1434      C1435   1.329       .  A
C1435      C1436   1.390       .  A
C1436      H1440   1.083       .  S
C1441      C1446   1.380       .  A
C1441      C1442   1.406       .  A
C1441      O1447   1.321       .  A
C1442      C1443   1.406       .  A
C1442      H1453   1.083       .  S
C1443      C1452   1.364       .  A
C1443      C1444   1.381       .  A
C1444      C1445   1.401       .  A
C1444      O1450   1.317       .  A
C1445      C1446   1.400       .  A
C1445      H1454   1.083       .  S
C1446      C1449   1.358       .  A
O1447      C1448   1.332       .  A
C1448      C1449   1.390       .  A
C1449      H1455   1.083       .  S
O1450      C1451   1.330       .  A
C1451      C1452   1.393       .  A
C1452      H1456   1.083       .  S
C1457      C1462   1.381       .  A
C1457      C1458   1.399       .  A
C1457      O1463   1.316       .  A
C1458      C1459   1.399       .  A
C1458      H1469   1.082       .  S
C1459      C1468   1.357       .  A
C1459      C1460   1.382       .  A
C1460      C1461   1.398       .  A
C1460      O1466   1.314       .  A
C1461      C1462   1.398       .  A
C1461      H1470   1.082       .  S
C1462      C1465   1.355       .  A
O1463      C1464   1.329       .  A
C1464      C1465   1.389       .  A
C1465      H1471   1.082       .  S
O1466      C1467   1.328       .  A
C1467      C1468   1.388       .  A
C1468      H1472   1.082       .  S
C1473      C1478   1.381       .  A
C1473      C1474   1.405       .  A
C1473      O1479   1.320       .  A
C1474      C1475   1.404       .  A
C1474      H1485   1.082       .  S
C1475      C1484   1.365       .  A
C1475      C1476   1.380       .  A
C1476      C1477   1.400       .  A
C1476      O1482   1.315       .  A
C1477      C1478   1.399       .  A
C1477      H1486   1.083       .  S
C1478      C1481   1.358       .  A
O1479      C1480   1.332       .  A
C1480      C1481   1.391       .  A
C1481      H1487   1.083       .  S
O1482      C1483   1.329       .  A
C1483      C1484   1.392       .  A
C1484      H1488   1.082       .  S
C1489      C1494   1.381       .  A
C1489      C1490   1.404       .  A
C1489      O1495   1.320       .  A
C1490      C1491   1.404       .  A
C1490      H1501   1.082       .  S
C1491      C1500   1.361       .  A
C1491      C1492   1.381       .  A
C1492      C1493   1.398       .  A
C1492      O1498   1.316       .  A
C1493      C1494   1.398       .  A
C1493      H1502   1.082       .  S
C1494      C1497   1.354       .  A
O1495      C1496   1.331       .  A
C1496      C1497   1.389       .  A
C1497      H1503   1.083       .  S
O1498      C1499   1.328       .  A
C1499      C1500   1.393       .  A
C1500      H1504   1.083       .  S
C1505      C1510   1.377       .  A
C1505      C1506   1.412       .  A
C1505      O1511   1.322       .  A
C1506      C1507   1.409       .  A
C1506      H1517   1.082       .  S
C1507      C1516   1.375       .  A
C1507      C1508   1.376       .  A
C1508      C1509   1.414       .  A
C1508      O1514   1.323       .  A
C1509      C1510   1.411       .  A
C1509      H1518   1.082       .  S
C1510      C1513   1.378       .  A
O1511      C1512   1.337       .  A
C1512      C1513   1.397       .  A
C1513      H1519   1.082       .  S
O1514      C1515   1.339       .  A
C1515      C1516   1.397       .  A
C1516      H1520   1.082       .  S
C1521      C1526   1.376       .  A
C1521      C1522   1.410       .  A
C1521      O1527   1.319       .  A
C1522      C1523   1.407       .  A
C1522      H1533   1.082       .  S
C1523      C1532   1.374       .  A
C1523      C1524   1.377       .  A
C1524      C1525   1.416       .  A
C1524      O1530   1.325       .  A
C1525      C1526   1.412       .  A
C1525      H1534   1.082       .  S
C1526      C1529   1.379       .  A
O1527      C1528   1.337       .  A
C1528      C1529   1.400       .  A
C1529      H1535   1.082       .  S
O1530      C1531   1.338       .  A
C1531      C1532   1.394       .  A
C1532      H1536   1.082       .  S
C1537      C1542   1.375       .  A
C1537      C1538   1.416       .  A
C1537      O1543   1.323       .  A
C1538      C1539   1.412       .  A
C1538      H1549   1.082       .  S
C1539      C1548   1.380       .  A
C1539      C1540   1.378       .  A
C1540      C1541   1.410       .  A
C1540      O1546   1.319       .  A
C1541      C1542   1.406       .  A
C1541      H1550   1.082       .  S
C1542      C1545   1.374       .  A
O1543      C1544   1.341       .  A
C1544      C1545   1.398       .  A
C1545      H1551   1.081       .  S
O1546      C1547   1.335       .  A
C1547      C1548   1.398       .  A
C1548      H1552   1.082       .  S
C1553      C1558   1.376       .  A
C1553      C1554   1.416       .  A
C1553      O1559   1.323       .  A
C1554      C1555   1.412       .  A
C1554      H1565   1.083       .  S
C1555      C1564   1.382       .  A
C1555      C1556   1.377       .  A
C1556      C1557   1.409       .  A
C1556      O1562   1.317       .  A
C1557      C1558   1.405       .  A
C1557      H1566   1.083       .  S
C1558      C1561   1.372       .  A
O1559      C1560   1.340       .  A
C1560      C1561   1.396       .  A
C1561      H1567   1.082       .  S
O1562      C1563   1.336       .  A
C1563      C1564   1.398       .  A
C1564      H1568   1.082       .  S
C1569      C1574   1.376       .  A
C1569      C1570   1.414       .  A
C1569      O1575   1.323       .  A
C1570      C1571   1.411       .  A
C1570      H1581   1.076       .  S
C1571      C1580   1.377       .  A
C1571      C1572   1.374       .  A
C1572      C1573   1.418       .  A
C1572      O1578   1.326       .  A
C1573      C1574   1.415       .  A
C1573      H1582   1.074       .  S
C1574      C1577   1.383       .  A
O1575      C1576   1.338       .  A
C1576      C1577   1.399       .  A
C1577      H1583   1.078       .  S
O1578      C1579   1.341       .  A
C1579      C1580   1.401       .  A
C1580      H1584   1.079       .  S
C1585      C1590   1.379       .  A
C1585      C1586   1.407       .  A
C1585      O1591   1.330       .  A
C1586      C1587   1.410       .  A
C1586      H1597   1.084       .  S
C1587      C1596   1.359       .  A
C1587      C1588   1.379       .  A
C1588      C1589   1.410       .  A
C1588      O1594   1.334       .  A
C1589      C1590   1.414       .  A
C1589      H1598   1.083       .  S
C1590      C1593   1.363       .  A
O1591      C1592   1.335       .  A
C1592      C1593   1.403       .  A
C1593      H1599   1.082       .  S
O1594      C1595   1.336       .  A
C1595      C1596   1.397       .  A
C1596      H1600   1.084       .  S
C1601      C1606   1.375       .  A
C1601      C1602   1.413       .  A
C1601      O1607   1.320       .  A
C1602      C1603   1.409       .  A
C1602      H1613   1.082       .  S
C1603      C1612   1.378       .  A
C1603      C1604   1.378       .  A
C1604      C1605   1.413       .  A
C1604      O1610   1.320       .  A
C1605      C1606   1.409       .  A
C1605      H1614   1.082       .  S
C1606      C1609   1.378       .  A
O1607      C1608   1.340       .  A
C1608      C1609   1.400       .  A
C1609      H1615   1.080       .  S
O1610      C1611   1.337       .  A
C1611      C1612   1.396       .  A
C1612      H1616   1.082       .  S
C1617      C1622   1.381       .  A
C1617      C1618   1.399       .  A
C1617      O1623   1.316       .  A
C1618      C1619   1.399       .  A
C1618      H1629   1.082       .  S
C1619      C1628   1.356       .  A
C1619      C1620   1.381       .  A
C1620      C1621   1.403       .  A
C1620      O1626   1.320       .  A
C1621      C1622   1.404       .  A
C1621      H1630   1.082       .  S
C1622      C1625   1.361       .  A
O1623      C1624   1.328       .  A
C1624      C1625   1.392       .  A
C1625      H1631   1.083       .  S
O1626      C1627   1.331       .  A
C1627      C1628   1.390       .  A
C1628      H1632   1.083       .  S
C1633      C1638   1.378       .  A
C1633      C1634   1.412       .  A
C1633      O1639   1.322       .  A
C1634      C1635   1.409       .  A
C1634      H1645   1.082       .  S
C1635      C1644   1.375       .  A
C1635      C1636   1.377       .  A
C1636      C1637   1.407       .  A
C1636      O1642   1.317       .  A
C1637      C1638   1.404       .  A
C1637      H1646   1.082       .  S
C1638      C1641   1.370       .  A
O1639      C1640   1.336       .  A
C1640      C1641   1.392       .  A
C1641      H1647   1.082       .  S
O1642      C1643   1.335       .  A
C1643      C1644   1.398       .  A
C1644      H1648   1.082       .  S
C1649      C1654   1.381       .  A
C1649      C1650   1.402       .  A
C1649      O1655   1.316       .  A
C1650      C1651   1.401       .  A
C1650      H1661   1.083       .  S
C1651      C1660   1.361       .  A
C1651      C1652   1.381       .  A
C1652      C1653   1.403       .  A
C1652      O1658   1.317       .  A
C1653      C1654   1.401       .  A
C1653      H1662   1.083       .  S
C1654      C1657   1.361       .  A
O1655      C1656   1.330       .  A
C1656      C1657   1.390       .  A
C1657      H1663   1.083       .  S
O1658      C1659   1.330       .  A
C1659      C1660   1.391       .  A
C1660      H1664   1.083       .  S
C1665      C1670   1.381       .  A
C1665      C1666   1.400       .  A
C1665      O1671   1.314       .  A
C1666      C1667   1.398       .  A
C1666      H1677   1.082       .  S
C1667      C1676   1.359       .  A
C1667      C1668   1.381       .  A
C1668      C1669   1.402       .  A
C1668      O1674   1.315       .  A
C1669      C1670   1.400       .  A
C1669      H1678   1.082       .  S
C1670      C1673   1.360       .  A
O1671      C1672   1.328       .  A
C1672      C1673   1.390       .  A
C1673      H1679   1.083       .  S
O1674      C1675   1.330       .  A
C1675      C1676   1.389       .  A
C1676      H1680   1.082       .  S
C1681      C1686   1.381       .  A
C1681      C1682   1.405       .  A
C1681      O1687   1.319       .  A
C1682      C1683   1.404       .  A
C1682      H1693   1.083       .  S
C1683      C1692   1.366       .  A
C1683      C1684   1.381       .  A
C1684      C1685   1.400       .  A
C1684      O1690   1.315       .  A
C1685      C1686   1.399       .  A
C1685      H1694   1.083       .  S
C1686      C1689   1.359       .  A
O1687      C1688   1.331       .  A
C1688      C1689   1.389       .  A
C1689      H1695   1.083       .  S
O1690      C1691   1.329       .  A
C1691      C1692   1.392       .  A
C1692      H1696   1.082       .  S
C1697      C1702   1.377       .  A
C1697      C1698   1.413       .  A
C1697      O1703   1.322       .  A
C1698      C1699   1.409       .  A
C1698      H1709   1.078       .  S
C1699      C1708   1.376       .  A
C1699      C1700   1.376       .  A
C1700      C1701   1.415       .  A
C1700      O1706   1.324       .  A
C1701      C1702   1.412       .  A
C1701      H1710   1.077       .  S
C1702      C1705   1.380       .  A
O1703      C1704   1.336       .  A
C1704      C1705   1.397       .  A
C1705      H1711   1.079       .  S
O1706      C1707   1.339       .  A
C1707      C1708   1.398       .  A
C1708      H1712   1.081       .  S
C1713      C1718   1.381       .  A
C1713      C1714   1.399       .  A
C1713      O1719   1.314       .  A
C1714      C1715   1.398       .  A
C1714      H1725   1.082       .  S
C1715      C1724   1.358       .  A
C1715      C1716   1.381       .  A
C1716      C1717   1.404       .  A
C1716      O1722   1.318       .  A
C1717      C1718   1.403       .  A
C1717      H1726   1.083       .  S
C1718      C1721   1.362       .  A
O1719      C1720   1.328       .  A
C1720      C1721   1.392       .  A
C1721      H1727   1.083       .  S
O1722      C1723   1.331       .  A
C1723      C1724   1.388       .  A
C1724      H1728   1.083       .  S
C1729      C1734   1.376       .  A
C1729      C1730   1.419       .  A
C1729      O1735   1.327       .  A
C1730      C1731   1.416       .  A
C1730      H1741   1.083       .  S
C1731      C1740   1.384       .  A
C1731      C1732   1.377       .  A
C1732      C1733   1.409       .  A
C1732      O1738   1.319       .  A
C1733      C1734   1.406       .  A
C1733      H1742   1.083       .  S
C1734      C1737   1.371       .  A
O1735      C1736   1.341       .  A
C1736      C1737   1.397       .  A
C1737      H1743   1.082       .  S
O1738      C1739   1.336       .  A
C1739      C1740   1.400       .  A
C1740      H1744   1.082       .  S
C1745      C1750   1.381       .  A
C1745      C1746   1.405       .  A
C1745      O1751   1.320       .  A
C1746      C1747   1.403       .  A
C1746      H1757   1.083       .  S
C1747      C1756   1.363       .  A
C1747      C1748   1.380       .  A
C1748      C1749   1.404       .  A
C1748      O1754   1.319       .  A
C1749      C1750   1.403       .  A
C1749      H1758   1.083       .  S
C1750      C1753   1.363       .  A
O1751      C1752   1.331       .  A
C1752      C1753   1.393       .  A
C1753      H1759   1.083       .  S
O1754      C1755   1.331       .  A
C1755      C1756   1.392       .  A
C1756      H1760   1.083       .  S
C1761      C1766   1.379       .  A
C1761      C1762   1.413       .  A
C1761      O1767   1.336       .  A
C1762      C1763   1.416       .  A
C1762      H1773   1.083       .  S
C1763      C1772   1.367       .  A
C1763      C1764   1.378       .  A
C1764      C1765   1.408       .  A
C1764      O1770   1.331       .  A
C1765      C1766   1.412       .  A
C1765      H1774   1.083       .  S
C1766      C1769   1.362       .  A
O1767      C1768   1.338       .  A
C1768      C1769   1.399       .  A
C1769      H1775   1.083       .  S
O1770      C1771   1.336       .  A
C1771      C1772   1.403       .  A
C1772      H1776   1.082       .  S
C1777      C1782   1.378       .  A
C1777      C1778   1.410       .  A
C1777      O1783   1.321       .  A
C1778      C1779   1.407       .  A
C1778      H1789   1.082       .  S
C1779      C1788   1.372       .  A
C1779      C1780   1.376       .  A
C1780      C1781   1.413       .  A
C1780      O1786   1.323       .  A
C1781      C1782   1.410       .  A
C1781      H1790   1.082       .  S
C1782      C1785   1.376       .  A
O1783      C1784   1.335       .  A
C1784      C1785   1.396       .  A
C1785      H1791   1.082       .  S
O1786      C1787   1.339       .  A
C1787      C1788   1.398       .  A
C1788      H1792   1.082       .  S
C1793      C1798   1.381       .  A
C1793      C1794   1.403       .  A
C1793      O1799   1.322       .  A
C1794      C1795   1.404       .  A
C1794      H1805   1.083       .  S
C1795      C1804   1.359       .  A
C1795      C1796   1.381       .  A
C1796      C1797   1.400       .  A
C1796      O1802   1.319       .  A
C1797      C1798   1.401       .  A
C1797      H1806   1.083       .  S
C1798      C1801   1.355       .  A
O1799      C1800   1.331       .  A
C1800      C1801   1.391       .  A
C1801      H1807   1.083       .  S
O1802      C1803   1.329       .  A
C1803      C1804   1.393       .  A
C1804      H1808   1.083       .  S
C1809      C1814   1.381       .  A
C1809      C1810   1.397       .  A
C1809      O1815   1.313       .  A
C1810      C1811   1.396       .  A
C1810      H1821   1.082       .  S
C1811      C1820   1.353       .  A
C1811      C1812   1.381       .  A
C1812      C1813   1.404       .  A
C1812      O1818   1.320       .  A
C1813      C1814   1.404       .  A
C1813      H1822   1.082       .  S
C1814      C1817   1.362       .  A
O1815      C1816   1.327       .  A
C1816      C1817   1.392       .  A
C1817      H1823   1.082       .  S
O1818      C1819   1.331       .  A
C1819      C1820   1.389       .  A
C1820      H1824   1.083       .  S
C1825      C1830   1.377       .  A
C1825      C1826   1.410       .  A
C1825      O1831   1.318       .  A
C1826      C1827   1.406       .  A
C1826      H1837   1.082       .  S
C1827      C1836   1.374       .  A
C1827      C1828   1.376       .  A
C1828      C1829   1.418       .  A
C1828      O1834   1.325       .  A
C1829      C1830   1.413       .  A
C1829      H1838   1.082       .  S
C1830      C1833   1.383       .  A
O1831      C1832   1.336       .  A
C1832      C1833   1.399       .  A
C1833      H1839   1.082       .  S
O1834      C1835   1.342       .  A
C1835      C1836   1.396       .  A
C1836      H1840   1.082       .  S
C1841      C1846   1.381       .  A
C1841      C1842   1.402       .  A
C1841      O1847   1.319       .  A
C1842      C1843   1.402       .  A
C1842      H1853   1.082       .  S
C1843      C1852   1.360       .  A
C1843      C1844   1.382       .  A
C1844      C1845   1.394       .  A
C1844      O1850   1.311       .  A
C1845      C1846   1.394       .  A
C1845      H1854   1.083       .  S
C1846      C1849   1.349       .  A
O1847      C1848   1.330       .  A
C1848      C1849   1.387       .  A
C1849      H1855   1.083       .  S
O1850      C1851   1.326       .  A
C1851      C1852   1.391       .  A
C1852      H1856   1.083       .  S
C1857      C1862   1.377       .  A
C1857      C1858   1.417       .  A
C1857      O1863   1.324       .  A
C1858      C1859   1.413       .  A
C1858      H1869   1.082       .  S
C1859      C1868   1.381       .  A
C1859      C1860   1.375       .  A
C1860      C1861   1.413       .  A
C1860      O1866   1.321       .  A
C1861      C1862   1.409       .  A
C1861      H1870   1.082       .  S
C1862      C1865   1.379       .  A
O1863      C1864   1.340       .  A
C1864      C1865   1.396       .  A
C1865      H1871   1.082       .  S
O1866      C1867   1.339       .  A
C1867      C1868   1.402       .  A
C1868      H1872   1.082       .  S
C1873      C1878   1.381       .  A
C1873      C1874   1.403       .  A
C1873      O1879   1.321       .  A
C1874      C1875   1.404       .  A
C1874      H1885   1.082       .  S
C1875      C1884   1.360       .  A
C1875      C1876   1.381       .  A
C1876      C1877   1.399       .  A
C1876      O1882   1.318       .  A
C1877      C1878   1.400       .  A
C1877      H1886   1.083       .  S
C1878      C1881   1.355       .  A
O1879      C1880   1.331       .  A
C1880      C1881   1.391       .  A
C1881      H1887   1.083       .  S
O1882      C1883   1.329       .  A
C1883      C1884   1.393       .  A
C1884      H1888   1.083       .  S
C1889      C1894   1.376       .  A
C1889      C1890   1.413       .  A
C1889      O1895   1.321       .  A
C1890      C1891   1.409       .  A
C1890      H1901   1.082       .  S
C1891      C1900   1.379       .  A
C1891      C1892   1.377       .  A
C1892      C1893   1.414       .  A
C1892      O1898   1.321       .  A
C1893      C1894   1.410       .  A
C1893      H1902   1.082       .  S
C1894      C1897   1.378       .  A
O1895      C1896   1.339       .  A
C1896      C1897   1.400       .  A
C1897      H1903   1.082       .  S
O1898      C1899   1.338       .  A
C1899      C1900   1.396       .  A
C1900      H1904   1.082       .  S
C1905      C1910   1.381       .  A
C1905      C1906   1.398       .  A
C1905      O1911   1.311       .  A
C1906      C1907   1.396       .  A
C1906      H1917   1.083       .  S
C1907      C1916   1.357       .  A
C1907      C1908   1.381       .  A
C1908      C1909   1.404       .  A
C1908      O1914   1.315       .  A
C1909      C1910   1.401       .  A
C1909      H1918   1.083       .  S
C1910      C1913   1.364       .  A
O1911      C1912   1.328       .  A
C1912      C1913   1.391       .  A
C1913      H1919   1.083       .  S
O1914      C1915   1.331       .  A
C1915      C1916   1.387       .  A
C1916      H1920   1.083       .  S
C1921      C1926   1.377       .  A
C1921      C1922   1.418       .  A
C1921      O1927   1.326       .  A
C1922      C1923   1.415       .  A
C1922      H1933   1.082       .  S
C1923      C1932   1.384       .  A
C1923      C1924   1.377       .  A
C1924      C1925   1.409       .  A
C1924      O1930   1.318       .  A
C1925      C1926   1.405       .  A
C1925      H1934   1.082       .  S
C1926      C1929   1.373       .  A
O1927      C1928   1.341       .  A
C1928      C1929   1.395       .  A
C1929      H1935   1.082       .  S
O1930      C1931   1.335       .  A
C1931      C1932   1.400       .  A
C1932      H1936   1.082       .  S
C1937      C1942   1.381       .  A
C1937      C1938   1.404       .  A
C1937      O1943   1.321       .  A
C1938      C1939   1.404       .  A
C1938      H1949   1.083       .  S
C1939      C1948   1.362       .  A
C1939      C1940   1.381       .  A
C1940      C1941   1.399       .  A
C1940      O1946   1.315       .  A
C1941      C1942   1.398       .  A
C1941      H1950   1.083       .  S
C1942      C1945   1.355       .  A
O1943      C1944   1.331       .  A
C1944      C1945   1.390       .  A
C1945      H1951   1.083       .  S
O1946      C1947   1.329       .  A
C1947      C1948   1.392       .  A
C1948      H1952   1.082       .  S
C1953      C1958   1.381       .  A
C1953      C1954   1.399       .  A
C1953      O1959   1.314       .  A
C1954      C1955   1.398       .  A
C1954      H1965   1.083       .  S
C1955      C1964   1.357       .  A
C1955      C1956   1.382       .  A
C1956      C1957   1.404       .  A
C1956      O1962   1.318       .  A
C1957      C1958   1.403       .  A
C1957      H1966   1.082       .  S
C1958      C1961   1.365       .  A
O1959      C1960   1.329       .  A
C1960      C1961   1.391       .  A
C1961      H1967   1.082       .  S
O1962      C1963   1.330       .  A
C1963      C1964   1.389       .  A
C1964      H1968   1.083       .  S
C1969      C1974   1.382       .  A
C1969      C1970   1.399       .  A
C1969      O1975   1.319       .  A
C1970      C1971   1.399       .  A
C1970      H1981   1.083       .  S
C1971      C1980   1.353       .  A
C1971      C1972   1.381       .  A
C1972      C1973   1.400       .  A
C1972      O1978   1.320       .  A
C1973      C1974   1.402       .  A
C1973      H1982   1.083       .  S
C1974      C1977   1.355       .  A
O1975      C1976   1.328       .  A
C1976      C1977   1.392       .  A
C1977      H1983   1.083       .  S
O1978      C1979   1.330       .  A
C1979      C1980   1.390       .  A
C1980      H1984   1.083       .  S
C1985      C1990   1.376       .  A
C1985      C1986   1.421       .  A
C1985      O1991   1.326       .  A
C1986      C1987   1.416       .  A
C1986      H1997   1.082       .  S
C1987      C1996   1.388       .  A
C1987      C1988   1.377       .  A
C1988      C1989   1.408       .  A
C1988      O1994   1.316       .  A
C1989      C1990   1.403       .  A
C1989      H1998   1.082       .  S
C1990      C1993   1.372       .  A
O1991      C1992   1.342       .  A
C1992      C1993   1.394       .  A
C1993      H1999   1.082       .  S
O1994      C1995   1.335       .  A
C1995      C1996   1.401       .  A
C1996      H2000   1.082       .  S
C2001      C2006   1.380       .  A
C2001      C2002   1.405       .  A
C2001      O2007   1.323       .  A
C2002      C2003   1.406       .  A
C2002      H2013   1.082       .  S
C2003      C2012   1.363       .  A
C2003      C2004   1.381       .  A
C2004      C2005   1.399       .  A
C2004      O2010   1.317       .  A
C2005      C2006   1.399       .  A
C2005      H2014   1.082       .  S
C2006      C2009   1.354       .  A
O2007      C2008   1.332       .  A
C2008      C2009   1.391       .  A
C2009      H2015   1.083       .  S
O2010      C2011   1.329       .  A
C2011      C2012   1.393       .  A
C2012      H2016   1.083       .  S
C2017      C2022   1.377       .  A
C2017      C2018   1.414       .  A
C2017      O2023   1.323       .  A
C2018      C2019   1.410       .  A
C2018      H2029   1.082       .  S
C2019      C2028   1.376       .  A
C2019      C2020   1.377       .  A
C2020      C2021   1.407       .  A
C2020      O2026   1.317       .  A
C2021      C2022   1.404       .  A
C2021      H2030   1.082       .  S
C2022      C2025   1.368       .  A
O2023      C2024   1.338       .  A
C2024      C2025   1.393       .  A
C2025      H2031   1.082       .  S
O2026      C2027   1.335       .  A
C2027      C2028   1.398       .  A
C2028      H2032   1.082       .  S
C2033      C2038   1.382       .  A
C2033      C2034   1.398       .  A
C2033      O2039   1.315       .  A
C2034      C2035   1.397       .  A
C2034      H2045   1.083       .  S
C2035      C2044   1.353       .  A
C2035      C2036   1.382       .  A
C2036      C2037   1.400       .  A
C2036      O2042   1.317       .  A
C2037      C2038   1.400       .  A
C2037      H2046   1.083       .  S
C2038      C2041   1.357       .  A
O2039      C2040   1.328       .  A
C2040      C2041   1.391       .  A
C2041      H2047   1.083       .  S
O2042      C2043   1.329       .  A
C2043      C2044   1.389       .  A
C2044      H2048   1.083       .  S
C2049      C2054   1.378       .  A
C2049      C2050   1.415       .  A
C2049      O2055   1.333       .  A
C2050      C2051   1.417       .  A
C2050      H2061   1.082       .  S
C2051      C2060   1.372       .  A
C2051      C2052   1.378       .  A
C2052      C2053   1.405       .  A
C2052      O2058   1.324       .  A
C2053      C2054   1.406       .  A
C2053      H2062   1.082       .  S
C2054      C2057   1.360       .  A
O2055      C2056   1.339       .  A
C2056      C2057   1.396       .  A
C2057      H2063   1.082       .  S
O2058      C2059   1.333       .  A
C2059      C2060   1.400       .  A
C2060      H2064   1.082       .  S
C2065      C2070   1.381       .  A
C2065      C2066   1.402       .  A
C2065      O2071   1.318       .  A
C2066      C2067   1.401       .  A
C2066      H2077   1.083       .  S
C2067      C2076   1.359       .  A
C2067      C2068   1.381       .  A
C2068      C2069   1.399       .  A
C2068      O2074   1.316       .  A
C2069      C2070   1.399       .  A
C2069      H2078   1.083       .  S
C2070      C2073   1.357       .  A
O2071      C2072   1.330       .  A
C2072      C2073   1.389       .  A
C2073      H2079   1.083       .  S
O2074      C2075   1.328       .  A
C2075      C2076   1.391       .  A
C2076      H2080   1.083       .  S
C2081      C2086   1.378       .  A
C2081      C2082   1.409       .  A
C2081      O2087   1.319       .  A
C2082      C2083   1.406       .  A
C2082      H2093   1.083       .  S
C2083      C2092   1.371       .  A
C2083      C2084   1.376       .  A
C2084      C2085   1.412       .  A
C2084      O2090   1.321       .  A
C2085      C2086   1.409       .  A
C2085      H2094   1.082       .  S
C2086      C2089   1.376       .  A
O2087      C2088   1.335       .  A
C2088      C2089   1.395       .  A
C2089      H2095   1.082       .  S
O2090      C2091   1.338       .  A
C2091      C2092   1.398       .  A
C2092      H2096   1.081       .  S
C2097      C2102   1.382       .  A
C2097      C2098   1.403       .  A
C2097      O2103   1.319       .  A
C2098      C2099   1.402       .  A
C2098      H2109   1.083       .  S
C2099      C2108   1.361       .  A
C2099      C2100   1.381       .  A
C2100      C2101   1.399       .  A
C2100      O2106   1.316       .  A
C2101      C2102   1.399       .  A
C2101      H2110   1.083       .  S
C2102      C2105   1.356       .  A
O2103      C2104   1.330       .  A
C2104      C2105   1.389       .  A
C2105      H2111   1.083       .  S
O2106      C2107   1.328       .  A
C2107      C2108   1.391       .  A
C2108      H2112   1.083       .  S
C2113      C2118   1.377       .  A
C2113      C2114   1.414       .  A
C2113      O2119   1.323       .  A
C2114      C2115   1.411       .  A
C2114      H2125   1.082       .  S
C2115      C2124   1.379       .  A
C2115      C2116   1.378       .  A
C2116      C2117   1.408       .  A
C2116      O2122   1.318       .  A
C2117      C2118   1.405       .  A
C2117      H2126   1.082       .  S
C2118      C2121   1.371       .  A
O2119      C2120   1.338       .  A
C2120      C2121   1.393       .  A
C2121      H2127   1.082       .  S
O2122      C2123   1.334       .  A
C2123      C2124   1.397       .  A
C2124      H2128   1.082       .  S
C2129      C2134   1.376       .  A
C2129      C2130   1.415       .  A
C2129      O2135   1.322       .  A
C2130      C2131   1.411       .  A
C2130      H2141   1.082       .  S
C2131      C2140   1.381       .  A
C2131      C2132   1.377       .  A
C2132      C2133   1.414       .  A
C2132      O2138   1.322       .  A
C2133      C2134   1.410       .  A
C2133      H2142   1.082       .  S
C2134      C2137   1.378       .  A
O2135      C2136   1.339       .  A
C2136      C2137   1.399       .  A
C2137      H2143   1.081       .  S
O2138      C2139   1.338       .  A
C2139      C2140   1.398       .  A
C2140      H2144   1.082       .  S
C2145      C2150   1.378       .  A
C2145      C2146   1.416       .  A
C2145      O2151   1.334       .  A
C2146      C2147   1.417       .  A
C2146      H2157   1.082       .  S
C2147      C2156   1.373       .  A
C2147      C2148   1.377       .  A
C2148      C2149   1.407       .  A
C2148      O2154   1.326       .  A
C2149      C2150   1.408       .  A
C2149      H2158   1.083       .  S
C2150      C2153   1.362       .  A
O2151      C2152   1.339       .  A
C2152      C2153   1.397       .  A
C2153      H2159   1.083       .  S
O2154      C2155   1.336       .  A
C2155      C2156   1.401       .  A
C2156      H2160   1.082       .  S
C2161      C2166   1.378       .  A
C2161      C2162   1.411       .  A
C2161      O2167   1.320       .  A
C2162      C2163   1.408       .  A
C2162      H2173   1.082       .  S
C2163      C2172   1.375       .  A
C2163      C2164   1.377       .  A
C2164      C2165   1.412       .  A
C2164      O2170   1.321       .  A
C2165      C2166   1.409       .  A
C2165      H2174   1.082       .  S
C2166      C2169   1.377       .  A
O2167      C2168   1.336       .  A
C2168      C2169   1.395       .  A
C2169      H2175   1.082       .  S
O2170      C2171   1.338       .  A
C2171      C2172   1.398       .  A
C2172      H2176   1.082       .  S
C2177      C2182   1.375       .  A
C2177      C2178   1.420       .  A
C2177      O2183   1.324       .  A
C2178      C2179   1.414       .  A
C2178      H2189   1.082       .  S
C2179      C2188   1.388       .  A
C2179      C2180   1.376       .  A
C2180      C2181   1.412       .  A
C2180      O2186   1.317       .  A
C2181      C2182   1.407       .  A
C2181      H2190   1.082       .  S
C2182      C2185   1.377       .  A
O2183      C2184   1.342       .  A
C2184      C2185   1.398       .  A
C2185      H2191   1.082       .  S
O2186      C2187   1.338       .  A
C2187      C2188   1.400       .  A
C2188      H2192   1.082       .  S
C2193      C2198   1.377       .  A
C2193      C2194   1.412       .  A
C2193      O2199   1.320       .  A
C2194      C2195   1.408       .  A
C2194      H2205   1.082       .  S
C2195      C2204   1.375       .  A
C2195      C2196   1.376       .  A
C2196      C2197   1.416       .  A
C2196      O2202   1.324       .  A
C2197      C2198   1.412       .  A
C2197      H2206   1.082       .  S
C2198      C2201   1.381       .  A
O2199      C2200   1.336       .  A
C2200      C2201   1.398       .  A
C2201      H2207   1.082       .  S
O2202      C2203   1.340       .  A
C2203      C2204   1.397       .  A
C2204      H2208   1.082       .  S
C2209      C2214   1.375       .  A
C2209      C2210   1.416       .  A
C2209      O2215   1.324       .  A
C2210      C2211   1.413       .  A
C2210      H2221   1.081       .  S
C2211      C2220   1.381       .  A
C2211      C2212   1.377       .  A
C2212      C2213   1.413       .  A
C2212      O2218   1.322       .  A
C2213      C2214   1.410       .  A
C2213      H2222   1.082       .  S
C2214      C2217   1.376       .  A
O2215      C2216   1.340       .  A
C2216      C2217   1.400       .  A
C2217      H2223   1.081       .  S
O2218      C2219   1.337       .  A
C2219      C2220   1.398       .  A
C2220      H2224   1.082       .  S
C2225      C2230   1.380       .  A
C2225      C2226   1.405       .  A
C2225      O2231   1.323       .  A
C2226      C2227   1.406       .  A
C2226      H2237   1.082       .  S
C2227      C2236   1.362       .  A
C2227      C2228   1.381       .  A
C2228      C2229   1.398       .  A
C2228      O2234   1.316       .  A
C2229      C2230   1.399       .  A
C2229      H2238   1.082       .  S
C2230      C2233   1.353       .  A
O2231      C2232   1.332       .  A
C2232      C2233   1.391       .  A
C2233      H2239   1.083       .  S
O2234      C2235   1.329       .  A
C2235      C2236   1.393       .  A
C2236      H2240   1.083       .  S
C2241      C2246   1.378       .  A
C2241      C2242   1.409       .  A
C2241      O2247   1.318       .  A
C2242      C2243   1.405       .  A
C2242      H2253   1.083       .  S
C2243      C2252   1.373       .  A
C2243      C2244   1.377       .  A
C2244      C2245   1.413       .  A
C2244      O2250   1.321       .  A
C2245      C2246   1.409       .  A
C2245      H2254   1.083       .  S
C2246      C2249   1.378       .  A
O2247      C2248   1.335       .  A
C2248      C2249   1.396       .  A
C2249      H2255   1.082       .  S
O2250      C2251   1.338       .  A
C2251      C2252   1.396       .  A
C2252      H2256   1.082       .  S
C2257      C2262   1.382       .  A
C2257      C2258   1.399       .  A
C2257      O2263   1.314       .  A
C2258      C2259   1.398       .  A
C2258      H2269   1.082       .  S
C2259      C2268   1.357       .  A
C2259      C2260   1.381       .  A
C2260      C2261   1.399       .  A
C2260      O2266   1.313       .  A
C2261      C2262   1.397       .  A
C2261      H2270   1.082       .  S
C2262      C2265   1.357       .  A
O2263      C2264   1.328       .  A
C2264      C2265   1.388       .  A
C2265      H2271   1.083       .  S
O2266      C2267   1.328       .  A
C2267      C2268   1.389       .  A
C2268      H2272   1.083       .  S
C2273      C2278   1.378       .  A
C2273      C2274   1.413       .  A
C2273      O2279   1.322       .  A
C2274      C2275   1.410       .  A
C2274      H2285   1.082       .  S
C2275      C2284   1.377       .  A
C2275      C2276   1.376       .  A
C2276      C2277   1.411       .  A
C2276      O2282   1.319       .  A
C2277      C2278   1.407       .  A
C2277      H2286   1.082       .  S
C2278      C2281   1.375       .  A
O2279      C2280   1.337       .  A
C2280      C2281   1.394       .  A
C2281      H2287   1.082       .  S
O2282      C2283   1.338       .  A
C2283      C2284   1.400       .  A
C2284      H2288   1.081       .  S
C2289      C2294   1.381       .  A
C2289      C2290   1.404       .  A
C2289      O2295   1.318       .  A
C2290      C2291   1.402       .  A
C2290      H2301   1.082       .  S
C2291      C2300   1.364       .  A
C2291      C2292   1.381       .  A
C2292      C2293   1.400       .  A
C2292      O2298   1.314       .  A
C2293      C2294   1.399       .  A
C2293      H2302   1.082       .  S
C2294      C2297   1.359       .  A
O2295      C2296   1.330       .  A
C2296      C2297   1.391       .  A
C2297      H2303   1.083       .  S
O2298      C2299   1.329       .  A
C2299      C2300   1.391       .  A
C2300      H2304   1.082       .  S
C2305      C2310   1.378       .  A
C2305      C2306   1.412       .  A
C2305      O2311   1.321       .  A
C2306      C2307   1.408       .  A
C2306      H2317   1.082       .  S
C2307      C2316   1.376       .  A
C2307      C2308   1.377       .  A
C2308      C2309   1.411       .  A
C2308      O2314   1.319       .  A
C2309      C2310   1.407       .  A
C2309      H2318   1.082       .  S
C2310      C2313   1.375       .  A
O2311      C2312   1.335       .  A
C2312      C2313   1.395       .  A
C2313      H2319   1.082       .  S
O2314      C2315   1.338       .  A
C2315      C2316   1.398       .  A
C2316      H2320   1.082       .  S
C2321      C2326   1.381       .  A
C2321      C2322   1.398       .  A
C2321      O2327   1.314       .  A
C2322      C2323   1.397       .  A
C2322      H2333   1.082       .  S
C2323      C2332   1.356       .  A
C2323      C2324   1.381       .  A
C2324      C2325   1.403       .  A
C2324      O2330   1.318       .  A
C2325      C2326   1.403       .  A
C2325      H2334   1.082       .  S
C2326      C2329   1.362       .  A
O2327      C2328   1.327       .  A
C2328      C2329   1.392       .  A
C2329      H2335   1.083       .  S
O2330      C2331   1.331       .  A
C2331      C2332   1.388       .  A
C2332      H2336   1.082       .  S
C2337      C2342   1.379       .  A
C2337      C2338   1.412       .  A
C2337      O2343   1.333       .  A
C2338      C2339   1.415       .  A
C2338      H2349   1.083       .  S
C2339      C2348   1.367       .  A
C2339      C2340   1.377       .  A
C2340      C2341   1.410       .  A
C2340      O2346   1.330       .  A
C2341      C2342   1.412       .  A
C2341      H2350   1.083       .  S
C2342      C2345   1.364       .  A
O2343      C2344   1.337       .  A
C2344      C2345   1.399       .  A
C2345      H2351   1.083       .  S
O2346      C2347   1.338       .  A
C2347      C2348   1.406       .  A
C2348      H2352   1.081       .  S
C2353      C2358   1.380       .  A
C2353      C2354   1.401       .  A
C2353      O2359   1.316       .  A
C2354      C2355   1.400       .  A
C2354      H2365   1.083       .  S
C2355      C2364   1.360       .  A
C2355      C2356   1.381       .  A
C2356      C2357   1.406       .  A
C2356      O2362   1.319       .  A
C2357      C2358   1.404       .  A
C2357      H2366   1.083       .  S
C2358      C2361   1.366       .  A
O2359      C2360   1.330       .  A
C2360      C2361   1.392       .  A
C2361      H2367   1.083       .  S
O2362      C2363   1.332       .  A
C2363      C2364   1.391       .  A
C2364      H2368   1.083       .  S
C2369      C2374   1.379       .  A
C2369      C2370   1.410       .  A
C2369      O2375   1.331       .  A
C2370      C2371   1.412       .  A
C2370      H2381   1.082       .  S
C2371      C2380   1.365       .  A
C2371      C2372   1.379       .  A
C2372      C2373   1.408       .  A
C2372      O2378   1.328       .  A
C2373      C2374   1.410       .  A
C2373      H2382   1.082       .  S
C2374      C2377   1.362       .  A
O2375      C2376   1.336       .  A
C2376      C2377   1.397       .  A
C2377      H2383   1.083       .  S
O2378      C2379   1.335       .  A
C2379      C2380   1.399       .  A
C2380      H2384   1.083       .  S
C2385      C2390   1.381       .  A
C2385      C2386   1.399       .  A
C2385      O2391   1.314       .  A
C2386      C2387   1.399       .  A
C2386      H2397   1.082       .  S
C2387      C2396   1.357       .  A
C2387      C2388   1.381       .  A
C2388      C2389   1.401       .  A
C2388      O2394   1.317       .  A
C2389      C2390   1.401       .  A
C2389      H2398   1.082       .  S
C2390      C2393   1.359       .  A
O2391      C2392   1.329       .  A
C2392      C2393   1.390       .  A
C2393      H2399   1.082       .  S
O2394      C2395   1.329       .  A
C2395      C2396   1.390       .  A
C2396      H2400   1.083       .  S
C2401      C2406   1.376       .  A
C2401      C2402   1.418       .  A
C2401      O2407   1.325       .  A
C2402      C2403   1.414       .  A
C2402      H2413   1.082       .  S
C2403      C2412   1.386       .  A
C2403      C2404   1.377       .  A
C2404      C2405   1.407       .  A
C2404      O2410   1.314       .  A
C2405      C2406   1.402       .  A
C2405      H2414   1.082       .  S
C2406      C2409   1.370       .  A
O2407      C2408   1.341       .  A
C2408      C2409   1.394       .  A
C2409      H2415   1.082       .  S
O2410      C2411   1.335       .  A
C2411      C2412   1.400       .  A
C2412      H2416   1.082       .  S
C2417      C2422   1.376       .  A
C2417      C2418   1.414       .  A
C2417      O2423   1.333       .  A
C2418      C2419   1.417       .  A
C2418      H2429   1.082       .  S
C2419      C2428   1.371       .  A
C2419      C2420   1.378       .  A
C2420      C2421   1.406       .  A
C2420      O2426   1.327       .  A
C2421      C2422   1.408       .  A
C2421      H2430   1.082       .  S
C2422      C2425   1.361       .  A
O2423      C2424   1.340       .  A
C2424      C2425   1.401       .  A
C2425      H2431   1.082       .  S
O2426      C2427   1.334       .  A
C2427      C2428   1.400       .  A
C2428      H2432   1.082       .  S
C2433      C2438   1.377       .  A
C2433      C2434   1.411       .  A
C2433      O2439   1.322       .  A
C2434      C2435   1.409       .  A
C2434      H2445   1.082       .  S
C2435      C2444   1.373       .  A
C2435      C2436   1.377       .  A
C2436      C2437   1.416       .  A
C2436      O2442   1.326       .  A
C2437      C2438   1.413       .  A
C2437      H2446   1.082       .  S
C2438      C2441   1.379       .  A
O2439      C2440   1.338       .  A
C2440      C2441   1.400       .  A
C2441      H2447   1.082       .  S
O2442      C2443   1.339       .  A
C2443      C2444   1.396       .  A
C2444      H2448   1.082       .  S
C2449      C2454   1.375       .  A
C2449      C2450   1.420       .  A
C2449      O2455   1.325       .  A
C2450      C2451   1.416       .  A
C2450      H2461   1.082       .  S
C2451      C2460   1.387       .  A
C2451      C2452   1.377       .  A
C2452      C2453   1.409       .  A
C2452      O2458   1.317       .  A
C2453      C2454   1.405       .  A
C2453      H2462   1.082       .  S
C2454      C2457   1.373       .  A
O2455      C2456   1.343       .  A
C2456      C2457   1.397       .  A
C2457      H2463   1.081       .  S
O2458      C2459   1.335       .  A
C2459      C2460   1.401       .  A
C2460      H2464   1.082       .  S
C2465      C2470   1.377       .  A
C2465      C2466   1.417       .  A
C2465      O2471   1.326       .  A
C2466      C2467   1.414       .  A
C2466      H2477   1.082       .  S
C2467      C2476   1.382       .  A
C2467      C2468   1.378       .  A
C2468      C2469   1.408       .  A
C2468      O2474   1.318       .  A
C2469      C2470   1.404       .  A
C2469      H2478   1.082       .  S
C2470      C2473   1.370       .  A
O2471      C2472   1.340       .  A
C2472      C2473   1.394       .  A
C2473      H2479   1.082       .  S
O2474      C2475   1.335       .  A
C2475      C2476   1.398       .  A
C2476      H2480   1.082       .  S
C2481      C2486   1.376       .  A
C2481      C2482   1.413       .  A
C2481      O2487   1.333       .  A
C2482      C2483   1.416       .  A
C2482      H2493   1.082       .  S
C2483      C2492   1.371       .  A
C2483      C2484   1.379       .  A
C2484      C2485   1.402       .  A
C2484      O2490   1.323       .  A
C2485      C2486   1.403       .  A
C2485      H2494   1.082       .  S
C2486      C2489   1.354       .  A
O2487      C2488   1.339       .  A
C2488      C2489   1.399       .  A
C2489      H2495   1.082       .  S
O2490      C2491   1.331       .  A
C2491      C2492   1.400       .  A
C2492      H2496   1.082       .  S
C2497      C2502   1.377       .  A
C2497      C2498   1.413       .  A
C2497      O2503   1.321       .  A
C2498      C2499   1.409       .  A
C2498      H2509   1.083       .  S
C2499      C2508   1.377       .  A
C2499      C2500   1.378       .  A
C2500      C2501   1.410       .  A
C2500      O2506   1.319       .  A
C2501      C2502   1.406       .  A
C2501      H2510   1.083       .  S
C2502      C2505   1.373       .  A
O2503      C2504   1.339       .  A
C2504      C2505   1.397       .  A
C2505      H2511   1.082       .  S
O2506      C2507   1.335       .  A
C2507      C2508   1.395       .  A
C2508      H2512   1.083       .  S
C2513      C2518   1.378       .  A
C2513      C2514   1.405       .  A
C2513      O2519   1.326       .  A
C2514      C2515   1.407       .  A
C2514      H2525   1.082       .  S
C2515      C2524   1.358       .  A
C2515      C2516   1.379       .  A
C2516      C2517   1.411       .  A
C2516      O2522   1.332       .  A
C2517      C2518   1.413       .  A
C2517      H2526   1.082       .  S
C2518      C2521   1.366       .  A
O2519      C2520   1.334       .  A
C2520      C2521   1.402       .  A
C2521      H2527   1.082       .  S
O2522      C2523   1.336       .  A
C2523      C2524   1.396       .  A
C2524      H2528   1.083       .  S
C2529      C2534   1.378       .  A
C2529      C2530   1.415       .  A
C2529      O2535   1.332       .  A
C2530      C2531   1.416       .  A
C2530      H2541   1.082       .  S
C2531      C2540   1.373       .  A
C2531      C2532   1.378       .  A
C2532      C2533   1.404       .  A
C2532      O2538   1.323       .  A
C2533      C2534   1.405       .  A
C2533      H2542   1.082       .  S
C2534      C2537   1.360       .  A
O2535      C2536   1.338       .  A
C2536      C2537   1.393       .  A
C2537      H2543   1.083       .  S
O2538      C2539   1.333       .  A
C2539      C2540   1.400       .  A
C2540      H2544   1.082       .  S
C2545      C2550   1.377       .  A
C2545      C2546   1.412       .  A
C2545      O2551   1.321       .  A
C2546      C2547   1.408       .  A
C2546      H2557   1.082       .  S
C2547      C2556   1.374       .  A
C2547      C2548   1.375       .  A
C2548      C2549   1.416       .  A
C2548      O2554   1.325       .  A
C2549      C2550   1.413       .  A
C2549      H2558   1.082       .  S
C2550      C2553   1.381       .  A
O2551      C2552   1.337       .  A
C2552      C2553   1.398       .  A
C2553      H2559   1.082       .  S
O2554      C2555   1.341       .  A
C2555      C2556   1.400       .  A
C2556      H2560   1.080       .  S
C2561      C2566   1.376       .  A
C2561      C2562   1.412       .  A
C2561      O2567   1.320       .  A
C2562      C2563   1.408       .  A
C2562      H2573   1.082       .  S
C2563      C2572   1.377       .  A
C2563      C2564   1.378       .  A
C2564      C2565   1.413       .  A
C2564      O2570   1.321       .  A
C2565      C2566   1.409       .  A
C2565      H2574   1.082       .  S
C2566      C2569   1.376       .  A
O2567      C2568   1.338       .  A
C2568      C2569   1.399       .  A
C2569      H2575   1.081       .  S
O2570      C2571   1.337       .  A
C2571      C2572   1.395       .  A
C2572      H2576   1.082       .  S
C2577      C2582   1.376       .  A
C2577      C2578   1.418       .  A
C2577      O2583   1.326       .  A
C2578      C2579   1.414       .  A
C2578      H2589   1.082       .  S
C2579      C2588   1.384       .  A
C2579      C2580   1.377       .  A
C2580      C2581   1.414       .  A
C2580      O2586   1.322       .  A
C2581      C2582   1.410       .  A
C2581      H2590   1.082       .  S
C2582      C2585   1.377       .  A
O2583      C2584   1.341       .  A
C2584      C2585   1.398       .  A
C2585      H2591   1.082       .  S
O2586      C2587   1.338       .  A
C2587      C2588   1.399       .  A
C2588      H2592   1.082       .  S
C2593      C2598   1.375       .  A
C2593      C2594   1.413       .  A
C2593      O2599   1.322       .  A
C2594      C2595   1.410       .  A
C2594      H2605   1.082       .  S
C2595      C2604   1.378       .  A
C2595      C2596   1.376       .  A
C2596      C2597   1.418       .  A
C2596      O2602   1.325       .  A
C2597      C2598   1.413       .  A
C2597      H2606   1.082       .  S
C2598      C2601   1.382       .  A
O2599      C2600   1.339       .  A
C2600      C2601   1.401       .  A
C2601      H2607   1.082       .  S
O2602      C2603   1.341       .  A
C2603      C2604   1.397       .  A
C2604      H2608   1.082       .  S
C2609      C2614   1.376       .  A
C2609      C2610   1.408       .  A
C2609      O2615   1.314       .  A
C2610      C2611   1.403       .  A
C2610      H2621   1.082       .  S
C2611      C2620   1.372       .  A
C2611      C2612   1.376       .  A
C2612      C2613   1.423       .  A
C2612      O2618   1.327       .  A
C2613      C2614   1.418       .  A
C2613      H2622   1.082       .  S
C2614      C2617   1.392       .  A
O2615      C2616   1.336       .  A
C2616      C2617   1.403       .  A
C2617      H2623   1.082       .  S
O2618      C2619   1.343       .  A
C2619      C2620   1.394       .  A
C2620      H2624   1.082       .  S
C2625      C2630   1.376       .  A
C2625      C2626   1.419       .  A
C2625      O2631   1.326       .  A
C2626      C2627   1.415       .  A
C2626      H2637   1.082       .  S
C2627      C2636   1.387       .  A
C2627      C2628   1.377       .  A
C2628      C2629   1.408       .  A
C2628      O2634   1.316       .  A
C2629      C2630   1.404       .  A
C2629      H2638   1.082       .  S
C2630      C2633   1.372       .  A
O2631      C2632   1.341       .  A
C2632      C2633   1.395       .  A
C2633      H2639   1.082       .  S
O2634      C2635   1.335       .  A
C2635      C2636   1.400       .  A
C2636      H2640   1.082       .  S
C2641      C2646   1.378       .  A
C2641      C2642   1.416       .  A
C2641      O2647   1.334       .  A
C2642      C2643   1.417       .  A
C2642      H2653   1.082       .  S
C2643      C2652   1.373       .  A
C2643      C2644   1.378       .  A
C2644      C2645   1.408       .  A
C2644      O2650   1.327       .  A
C2645      C2646   1.409       .  A
C2645      H2654   1.082       .  S
C2646      C2649   1.363       .  A
O2647      C2648   1.339       .  A
C2648      C2649   1.397       .  A
C2649      H2655   1.082       .  S
O2650      C2651   1.335       .  A
C2651      C2652   1.400       .  A
C2652      H2656   1.082       .  S
C2657      C2662   1.378       .  A
C2657      C2658   1.413       .  A
C2657      O2663   1.333       .  A
C2658      C2659   1.416       .  A
C2658      H2669   1.082       .  S
C2659      C2668   1.370       .  A
C2659      C2660   1.378       .  A
C2660      C2661   1.404       .  A
C2660      O2666   1.324       .  A
C2661      C2662   1.406       .  A
C2661      H2670   1.082       .  S
C2662      C2665   1.358       .  A
O2663      C2664   1.338       .  A
C2664      C2665   1.397       .  A
C2665      H2671   1.082       .  S
O2666      C2667   1.333       .  A
C2667      C2668   1.399       .  A
C2668      H2672   1.082       .  S
C2673      C2678   1.376       .  A
C2673      C2674   1.418       .  A
C2673      O2679   1.324       .  A
C2674      C2675   1.413       .  A
C2674      H2685   1.081       .  S
C2675      C2684   1.385       .  A
C2675      C2676   1.377       .  A
C2676      C2677   1.410       .  A
C2676      O2682   1.316       .  A
C2677      C2678   1.405       .  A
C2677      H2686   1.082       .  S
C2678      C2681   1.374       .  A
O2679      C2680   1.340       .  A
C2680      C2681   1.396       .  A
C2681      H2687   1.082       .  S
O2682      C2683   1.336       .  A
C2683      C2684   1.399       .  A
C2684      H2688   1.082       .  S
C2689      C2694   1.377       .  A
C2689      C2690   1.413       .  A
C2689      O2695   1.324       .  A
C2690      C2691   1.410       .  A
C2690      H2701   1.082       .  S
C2691      C2700   1.374       .  A
C2691      C2692   1.376       .  A
C2692      C2693   1.409       .  A
C2692      O2698   1.321       .  A
C2693      C2694   1.407       .  A
C2693      H2702   1.082       .  S
C2694      C2697   1.371       .  A
O2695      C2696   1.337       .  A
C2696      C2697   1.394       .  A
C2697      H2703   1.082       .  S
O2698      C2699   1.337       .  A
C2699      C2700   1.400       .  A
C2700      H2704   1.081       .  S
C2705      C2710   1.377       .  A
C2705      C2706   1.417       .  A
C2705      O2711   1.325       .  A
C2706      C2707   1.414       .  A
C2706      H2717   1.082       .  S
C2707      C2716   1.383       .  A
C2707      C2708   1.378       .  A
C2708      C2709   1.406       .  A
C2708      O2714   1.315       .  A
C2709      C2710   1.402       .  A
C2709      H2718   1.082       .  S
C2710      C2713   1.368       .  A
O2711      C2712   1.340       .  A
C2712      C2713   1.394       .  A
C2713      H2719   1.082       .  S
O2714      C2715   1.334       .  A
C2715      C2716   1.399       .  A
C2716      H2720   1.082       .  S
C2721      C2726   1.377       .  A
C2721      C2722   1.416       .  A
C2721      O2727   1.325       .  A
C2722      C2723   1.413       .  A
C2722      H2733   1.082       .  S
C2723      C2732   1.381       .  A
C2723      C2724   1.378       .  A
C2724      C2725   1.408       .  A
C2724      O2730   1.318       .  A
C2725      C2726   1.405       .  A
C2725      H2734   1.082       .  S
C2726      C2729   1.369       .  A
O2727      C2728   1.339       .  A
C2728      C2729   1.396       .  A
C2729      H2735   1.082       .  S
O2730      C2731   1.335       .  A
C2731      C2732   1.398       .  A
C2732      H2736   1.082       .  S
C2737      C2742   1.378       .  A
C2737      C2738   1.412       .  A
C2737      O2743   1.322       .  A
C2738      C2739   1.409       .  A
C2738      H2749   1.082       .  S
C2739      C2748   1.374       .  A
C2739      C2740   1.376       .  A
C2740      C2741   1.413       .  A
C2740      O2746   1.323       .  A
C2741      C2742   1.410       .  A
C2741      H2750   1.082       .  S
C2742      C2745   1.377       .  A
O2743      C2744   1.336       .  A
C2744      C2745   1.396       .  A
C2745      H2751   1.082       .  S
O2746      C2747   1.339       .  A
C2747      C2748   1.399       .  A
C2748      H2752   1.082       .  S
C2753      C2758   1.378       .  A
C2753      C2754   1.407       .  A
C2753      O2759   1.329       .  A
C2754      C2755   1.410       .  A
C2754      H2765   1.082       .  S
C2755      C2764   1.360       .  A
C2755      C2756   1.377       .  A
C2756      C2757   1.414       .  A
C2756      O2762   1.335       .  A
C2757      C2758   1.418       .  A
C2757      H2766   1.082       .  S
C2758      C2761   1.370       .  A
O2759      C2760   1.335       .  A
C2760      C2761   1.401       .  A
C2761      H2767   1.082       .  S
O2762      C2763   1.340       .  A
C2763      C2764   1.402       .  A
C2764      H2768   1.082       .  S
C2769      C2774   1.379       .  A
C2769      C2770   1.404       .  A
C2769      O2775   1.329       .  A
C2770      C2771   1.408       .  A
C2770      H2781   1.082       .  S
C2771      C2780   1.357       .  A
C2771      C2772   1.378       .  A
C2772      C2773   1.416       .  A
C2772      O2778   1.339       .  A
C2773      C2774   1.420       .  A
C2773      H2782   1.082       .  S
C2774      C2777   1.369       .  A
O2775      C2776   1.333       .  A
C2776      C2777   1.405       .  A
C2777      H2783   1.082       .  S
O2778      C2779   1.340       .  A
C2779      C2780   1.397       .  A
C2780      H2784   1.083       .  S
C2785      C2790   1.376       .  A
C2785      C2786   1.416       .  A
C2785      O2791   1.326       .  A
C2786      C2787   1.414       .  A
C2786      H2797   1.082       .  S
C2787      C2796   1.381       .  A
C2787      C2788   1.378       .  A
C2788      C2789   1.406       .  A
C2788      O2794   1.316       .  A
C2789      C2790   1.402       .  A
C2789      H2798   1.082       .  S
C2790      C2793   1.366       .  A
O2791      C2792   1.340       .  A
C2792      C2793   1.396       .  A
C2793      H2799   1.081       .  S
O2794      C2795   1.333       .  A
C2795      C2796   1.398       .  A
C2796      H2800   1.082       .  S
C2801      C2806   1.378       .  A
C2801      C2802   1.413       .  A
C2801      O2807   1.330       .  A
C2802      C2803   1.414       .  A
C2802      H2813   1.082       .  S
C2803      C2812   1.372       .  A
C2803      C2804   1.377       .  A
C2804      C2805   1.405       .  A
C2804      O2810   1.322       .  A
C2805      C2806   1.405       .  A
C2805      H2814   1.083       .  S
C2806      C2809   1.360       .  A
O2807      C2808   1.337       .  A
C2808      C2809   1.395       .  A
C2809      H2815   1.083       .  S
O2810      C2811   1.334       .  A
C2811      C2812   1.398       .  A
C2812      H2816   1.083       .  S
C2817      C2822   1.376       .  A
C2817      C2818   1.410       .  A
C2817      O2823   1.317       .  A
C2818      C2819   1.406       .  A
C2818      H2829   1.082       .  S
C2819      C2828   1.373       .  A
C2819      C2820   1.377       .  A
C2820      C2821   1.412       .  A
C2820      O2826   1.321       .  A
C2821      C2822   1.408       .  A
C2821      H2830   1.082       .  S
C2822      C2825   1.376       .  A
O2823      C2824   1.338       .  A
C2824      C2825   1.398       .  A
C2825      H2831   1.081       .  S
O2826      C2827   1.337       .  A
C2827      C2828   1.394       .  A
C2828      H2832   1.082       .  S
C2833      C2838   1.376       .  A
C2833      C2834   1.421       .  A
C2833      O2839   1.330       .  A
C2834      C2835   1.418       .  A
C2834      H2845   1.082       .  S
C2835      C2844   1.387       .  A
C2835      C2836   1.377       .  A
C2836      C2837   1.408       .  A
C2836      O2842   1.317       .  A
C2837      C2838   1.404       .  A
C2837      H2846   1.082       .  S
C2838      C2841   1.369       .  A
O2839      C2840   1.342       .  A
C2840      C2841   1.396       .  A
C2841      H2847   1.082       .  S
O2842      C2843   1.336       .  A
C2843      C2844   1.401       .  A
C2844      H2848   1.082       .  S
C2849      C2854   1.376       .  A
C2849      C2850   1.417       .  A
C2849      O2855   1.326       .  A
C2850      C2851   1.414       .  A
C2850      H2861   1.082       .  S
C2851      C2860   1.381       .  A
C2851      C2852   1.377       .  A
C2852      C2853   1.413       .  A
C2852      O2858   1.324       .  A
C2853      C2854   1.410       .  A
C2853      H2862   1.082       .  S
C2854      C2857   1.376       .  A
O2855      C2856   1.341       .  A
C2856      C2857   1.399       .  A
C2857      H2863   1.081       .  S
O2858      C2859   1.338       .  A
C2859      C2860   1.399       .  A
C2860      H2864   1.082       .  S
C2865      C2870   1.377       .  A
C2865      C2866   1.410       .  A
C2865      O2871   1.332       .  A
C2866      C2867   1.413       .  A
C2866      H2877   1.083       .  S
C2867      C2876   1.363       .  A
C2867      C2868   1.378       .  A
C2868      C2869   1.415       .  A
C2868      O2874   1.337       .  A
C2869      C2870   1.418       .  A
C2869      H2878   1.083       .  S
C2870      C2873   1.369       .  A
O2871      C2872   1.337       .  A
C2872      C2873   1.406       .  A
C2873      H2879   1.082       .  S
O2874      C2875   1.339       .  A
C2875      C2876   1.400       .  A
C2876      H2880   1.083       .  S
C2881      C2886   1.375       .  A
C2881      C2882   1.418       .  A
C2881      O2887   1.326       .  A
C2882      C2883   1.414       .  A
C2882      H2893   1.083       .  S
C2883      C2892   1.383       .  A
C2883      C2884   1.377       .  A
C2884      C2885   1.414       .  A
C2884      O2890   1.323       .  A
C2885      C2886   1.411       .  A
C2885      H2894   1.083       .  S
C2886      C2889   1.378       .  A
O2887      C2888   1.342       .  A
C2888      C2889   1.401       .  A
C2889      H2895   1.081       .  S
O2890      C2891   1.338       .  A
C2891      C2892   1.399       .  A
C2892      H2896   1.082       .  S
C2897      C2902   1.377       .  A
C2897      C2898   1.413       .  A
C2897      O2903   1.324       .  A
C2898      C2899   1.410       .  A
C2898      H2909   1.083       .  S
C2899      C2908   1.375       .  A
C2899      C2900   1.377       .  A
C2900      C2901   1.419       .  A
C2900      O2906   1.329       .  A
C2901      C2902   1.416       .  A
C2901      H2910   1.083       .  S
C2902      C2905   1.382       .  A
O2903      C2904   1.338       .  A
C2904      C2905   1.402       .  A
C2905      H2911   1.082       .  S
O2906      C2907   1.340       .  A
C2907      C2908   1.396       .  A
C2908      H2912   1.083       .  S
C2913      C2918   1.377       .  A
C2913      C2914   1.415       .  A
C2913      O2919   1.323       .  A
C2914      C2915   1.411       .  A
C2914      H2925   1.083       .  S
C2915      C2924   1.378       .  A
C2915      C2916   1.375       .  A
C2916      C2917   1.409       .  A
C2916      O2922   1.318       .  A
C2917      C2918   1.406       .  A
C2917      H2926   1.083       .  S
C2918      C2921   1.372       .  A
O2919      C2920   1.339       .  A
C2920      C2921   1.393       .  A
C2921      H2927   1.083       .  S
O2922      C2923   1.338       .  A
C2923      C2924   1.402       .  A
C2924      H2928   1.081       .  S
C2929      C2934   1.378       .  A
C2929      C2930   1.416       .  A
C2929      O2935   1.339       .  A
C2930      C2931   1.419       .  A
C2930      H2941   1.082       .  S
C2931      C2940   1.369       .  A
C2931      C2932   1.378       .  A
C2932      C2933   1.405       .  A
C2932      O2938   1.329       .  A
C2933      C2934   1.409       .  A
C2933      H2942   1.082       .  S
C2934      C2937   1.356       .  A
O2935      C2936   1.340       .  A
C2936      C2937   1.398       .  A
C2937      H2943   1.083       .  S
O2938      C2939   1.334       .  A
C2939      C2940   1.406       .  A
C2940      H2944   1.082       .  S
C2945      C2950   1.377       .  A
C2945      C2946   1.416       .  A
C2945      O2951   1.324       .  A
C2946      C2947   1.412       .  A
C2946      H2957   1.082       .  S
C2947      C2956   1.382       .  A
C2947      C2948   1.378       .  A
C2948      C2949   1.407       .  A
C2948      O2954   1.316       .  A
C2949      C2950   1.403       .  A
C2949      H2958   1.083       .  S
C2950      C2953   1.369       .  A
O2951      C2952   1.339       .  A
C2952      C2953   1.394       .  A
C2953      H2959   1.082       .  S
O2954      C2955   1.335       .  A
C2955      C2956   1.398       .  A
C2956      H2960   1.082       .  S
C2961      C2966   1.378       .  A
C2961      C2962   1.414       .  A
C2961      O2967   1.324       .  A
C2962      C2963   1.411       .  A
C2962      H2973   1.082       .  S
C2963      C2972   1.376       .  A
C2963      C2964   1.376       .  A
C2964      C2965   1.412       .  A
C2964      O2970   1.322       .  A
C2965      C2966   1.410       .  A
C2965      H2974   1.083       .  S
C2966      C2969   1.375       .  A
O2967      C2968   1.337       .  A
C2968      C2969   1.395       .  A
C2969      H2975   1.083       .  S
O2970      C2971   1.339       .  A
C2971      C2972   1.401       .  A
C2972      H2976   1.081       .  S
C2977      C2982   1.377       .  A
C2977      C2978   1.409       .  A
C2977      O2983   1.331       .  A
C2978      C2979   1.413       .  A
C2978      H2989   1.082       .  S
C2979      C2988   1.363       .  A
C2979      C2980   1.380       .  A
C2980      C2981   1.406       .  A
C2980      O2986   1.329       .  A
C2981      C2982   1.409       .  A
C2981      H2990   1.082       .  S
C2982      C2985   1.359       .  A
O2983      C2984   1.338       .  A
C2984      C2985   1.402       .  A
C2985      H2991   1.081       .  S
O2986      C2987   1.333       .  A
C2987      C2988   1.399       .  A
C2988      H2992   1.083       .  S
C2993      C2998   1.377       .  A
C2993      C2994   1.415       .  A
C2993      O2999   1.325       .  A
C2994      C2995   1.412       .  A
C2994      H3005   1.082       .  S
C2995      C3004   1.380       .  A
C2995      C2996   1.378       .  A
C2996      C2997   1.409       .  A
C2996      O3002   1.319       .  A
C2997      C2998   1.406       .  A
C2997      H3006   1.082       .  S
C2998      C3001   1.371       .  A
O2999      C3000   1.339       .  A
C3000      C3001   1.397       .  A
C3001      H3007   1.082       .  S
O3002      C3003   1.336       .  A
C3003      C3004   1.397       .  A
C3004      H3008   1.082       .  S
C3009      C3014   1.377       .  A
C3009      C3010   1.412       .  A
C3009      O3015   1.321       .  A
C3010      C3011   1.408       .  A
C3010      H3021   1.082       .  S
C3011      C3020   1.375       .  A
C3011      C3012   1.375       .  A
C3012      C3013   1.417       .  A
C3012      O3018   1.325       .  A
C3013      C3014   1.414       .  A
C3013      H3022   1.082       .  S
C3014      C3017   1.382       .  A
O3015      C3016   1.337       .  A
C3016      C3017   1.399       .  A
C3017      H3023   1.082       .  S
O3018      C3019   1.341       .  A
C3019      C3020   1.400       .  A
C3020      H3024   1.080       .  S
C3025      C3030   1.376       .  A
C3025      C3026   1.418       .  A
C3025      O3031   1.330       .  A
C3026      C3027   1.416       .  A
C3026      H3037   1.082       .  S
C3027      C3036   1.380       .  A
C3027      C3028   1.377       .  A
C3028      C3029   1.407       .  A
C3028      O3034   1.320       .  A
C3029      C3030   1.406       .  A
C3029      H3038   1.082       .  S
C3030      C3033   1.366       .  A
O3031      C3032   1.340       .  A
C3032      C3033   1.395       .  A
C3033      H3039   1.082       .  S
O3034      C3035   1.334       .  A
C3035      C3036   1.401       .  A
C3036      H3040   1.082       .  S
C3041      C3046   1.376       .  A
C3041      C3042   1.415       .  A
C3041      O3047   1.322       .  A
C3042      C3043   1.411       .  A
C3042      H3053   1.082       .  S
C3043      C3052   1.382       .  A
C3043      C3044   1.377       .  A
C3044      C3045   1.411       .  A
C3044      O3050   1.317       .  A
C3045      C3046   1.406       .  A
C3045      H3054   1.083       .  S
C3046      C3049   1.374       .  A
O3047      C3048   1.340       .  A
C3048      C3049   1.397       .  A
C3049      H3055   1.082       .  S
O3050      C3051   1.336       .  A
C3051      C3052   1.397       .  A
C3052      H3056   1.082       .  S
C3057      C3062   1.376       .  A
C3057      C3058   1.414       .  A
C3057      O3063   1.324       .  A
C3058      C3059   1.411       .  A
C3058      H3069   1.082       .  S
C3059      C3068   1.377       .  A
C3059      C3060   1.376       .  A
C3060      C3061   1.415       .  A
C3060      O3066   1.325       .  A
C3061      C3062   1.412       .  A
C3061      H3070   1.082       .  S
C3062      C3065   1.378       .  A
O3063      C3064   1.339       .  A
C3064      C3065   1.400       .  A
C3065      H3071   1.082       .  S
O3066      C3067   1.339       .  A
C3067      C3068   1.398       .  A
C3068      H3072   1.082       .  S
C3073      C3078   1.377       .  A
C3073      C3074   1.415       .  A
C3073      O3079   1.324       .  A
C3074      C3075   1.412       .  A
C3074      H3085   1.082       .  S
C3075      C3084   1.381       .  A
C3075      C3076   1.378       .  A
C3076      C3077   1.408       .  A
C3076      O3082   1.317       .  A
C3077      C3078   1.404       .  A
C3077      H3086   1.082       .  S
C3078      C3081   1.369       .  A
O3079      C3080   1.339       .  A
C3080      C3081   1.395       .  A
C3081      H3087   1.082       .  S
O3082      C3083   1.335       .  A
C3083      C3084   1.397       .  A
C3084      H3088   1.082       .  S
C3089      C3094   1.377       .  A
C3089      C3090   1.414       .  A
C3089      O3095   1.325       .  A
C3090      C3091   1.411       .  A
C3090      H3101   1.083       .  S
C3091      C3100   1.375       .  A
C3091      C3092   1.377       .  A
C3092      C3093   1.410       .  A
C3092      O3098   1.322       .  A
C3093      C3094   1.408       .  A
C3093      H3102   1.083       .  S
C3094      C3097   1.372       .  A
O3095      C3096   1.338       .  A
C3096      C3097   1.395       .  A
C3097      H3103   1.083       .  S
O3098      C3099   1.337       .  A
C3099      C3100   1.400       .  A
C3100      H3104   1.082       .  S
C3105      C3110   1.375       .  A
C3105      C3106   1.407       .  A
C3105      O3111   1.316       .  A
C3106      C3107   1.404       .  A
C3106      H3117   1.083       .  S
C3107      C3116   1.370       .  A
C3107      C3108   1.378       .  A
C3108      C3109   1.412       .  A
C3108      O3114   1.321       .  A
C3109      C3110   1.408       .  A
C3109      H3118   1.082       .  S
C3110      C3113   1.374       .  A
O3111      C3112   1.337       .  A
C3112      C3113   1.402       .  A
C3113      H3119   1.079       .  S
O3114      C3115   1.336       .  A
C3115      C3116   1.393       .  A
C3116      H3120   1.083       .  S
C3121      C3126   1.378       .  A
C3121      C3122   1.405       .  A
C3121      O3127   1.316       .  A
C3122      C3123   1.402       .  A
C3122      H3133   1.082       .  S
C3123      C3132   1.365       .  A
C3123      C3124   1.378       .  A
C3124      C3125   1.416       .  A
C3124      O3130   1.327       .  A
C3125      C3126   1.414       .  A
C3125      H3134   1.082       .  S
C3126      C3129   1.381       .  A
O3127      C3128   1.333       .  A
C3128      C3129   1.398       .  A
C3129      H3135   1.082       .  S
O3130      C3131   1.339       .  A
C3131      C3132   1.392       .  A
C3132      H3136   1.083       .  S
C3137      C3142   1.376       .  A
C3137      C3138   1.417       .  A
C3137      O3143   1.325       .  A
C3138      C3139   1.414       .  A
C3138      H3149   1.082       .  S
C3139      C3148   1.382       .  A
C3139      C3140   1.378       .  A
C3140      C3141   1.407       .  A
C3140      O3146   1.317       .  A
C3141      C3142   1.404       .  A
C3141      H3150   1.082       .  S
C3142      C3145   1.368       .  A
O3143      C3144   1.341       .  A
C3144      C3145   1.396       .  A
C3145      H3151   1.080       .  S
O3146      C3147   1.334       .  A
C3147      C3148   1.399       .  A
C3148      H3152   1.082       .  S
C3153      C3158   1.378       .  A
C3153      C3154   1.415       .  A
C3153      O3159   1.331       .  A
C3154      C3155   1.415       .  A
C3154      H3165   1.082       .  S
C3155      C3164   1.375       .  A
C3155      C3156   1.377       .  A
C3156      C3157   1.406       .  A
C3156      O3162   1.322       .  A
C3157      C3158   1.406       .  A
C3157      H3166   1.082       .  S
C3158      C3161   1.362       .  A
O3159      C3160   1.338       .  A
C3160      C3161   1.395       .  A
C3161      H3167   1.083       .  S
O3162      C3163   1.335       .  A
C3163      C3164   1.399       .  A
C3164      H3168   1.082       .  S
