geometry optimzed in LAMMPS
_audit_creation_date              2020-11-30 
_audit_creation_method            'lammps2cif' 
_symmetry_space_group_name_H-M    'P1' 
_symmetry_Int_Tables_number       1 
_symmetry_cell_setting            triclinic 
loop_ 
_symmetry_equiv_pos_as_xyz 
  x,y,z 
_cell_length_a                    56.74390471 
_cell_length_b                    57.023342284013545 
_cell_length_c                    46.7640682948865 
_cell_angle_alpha                 89.31001723896023 
_cell_angle_beta                  89.83319525007536 
_cell_angle_gamma                 120.77045376395796 
loop_ 
_atom_site_label 
_atom_site_type_symbol 
_atom_site_fract_x 
_atom_site_fract_y 
_atom_site_fract_z 
_atom_site_charge 
N1          N  0.46942349  0.94031140  0.43670990    -0.25700
N2          N  0.48183205  0.96471901  0.42422989    -0.33500
C3          C  0.49164380  0.98385472  0.44467752     0.02700
C4          C  0.48507809  0.97079224  0.47132145     0.08700
C5          C  0.47104829  0.94324710  0.46528552    -0.04400
H6          H  0.50255662  0.00560013  0.44035547     0.09400
H7          H  0.46237484  0.92648364  0.48062556     0.10600
Cu8        Cu  0.48414973  0.97028951  0.37970113     0.44200
Cu9        Cu  0.45000876  0.90396971  0.41433145     0.42000
Cu10       Cu  0.44903893  0.90880911  0.33674357     0.43900
N11         N  0.48313939  0.97052891  0.33490018    -0.33100
N12         N  0.47032228  0.94827855  0.31929877    -0.27300
C13         C  0.47340797  0.95562664  0.29138585    -0.03400
C14         C  0.48891492  0.98390830  0.28925334     0.08800
C15         C  0.49469119  0.99254526  0.31727197     0.02600
H16         H  0.46488429  0.94136021  0.27404186     0.10300
H17         H  0.50636906  0.01343668  0.32435188     0.09300
N18         N  0.43026395  0.87193451  0.35970384    -0.34500
N19         N  0.43083921  0.87026164  0.38793020    -0.26700
C20         C  0.41759466  0.84377062  0.39605124    -0.01900
C21         C  0.40826711  0.82809830  0.37182363     0.06700
C22         C  0.41659081  0.84649855  0.34916004     0.04800
H23         H  0.41522831  0.83650332  0.41795330     0.09900
H24         H  0.41330857  0.84178844  0.32665897     0.08700
N25         N  0.04637100  0.50670082  0.43292540    -0.25700
N26         N  0.02358966  0.49212565  0.41837252    -0.33500
C27         C  0.00206421  0.48048346  0.43644832     0.02700
C28         C  0.01156011  0.48797238  0.46385516     0.08700
C29         C  0.03984914  0.50460877  0.46096653    -0.04400
H30         H  0.98090912  0.46814450  0.42997922     0.09400
H31         H  0.05450420  0.51503753  0.47774026     0.10600
Cu32       Cu  0.02204508  0.49067229  0.37456240     0.44200
Cu33       Cu  0.08453172  0.52973141  0.41264876     0.42000
Cu34       Cu  0.08363866  0.53349281  0.33379653     0.43900
N35         N  0.02238821  0.49579699  0.33103349    -0.33100
N36         N  0.04461716  0.51201472  0.31569479    -0.27300
C37         C  0.03704236  0.51259274  0.28850995    -0.03400
C38         C  0.00867163  0.49593718  0.28700008     0.08800
C39         C  0.00024554  0.48559157  0.31428894     0.02600
H40         H  0.05107472  0.52474146  0.27144623     0.10300
H41         H  0.97935729  0.47241924  0.32174652     0.09300
N42         N  0.11930256  0.55173537  0.35835334    -0.34500
N43         N  0.11953996  0.55038409  0.38666446    -0.26700
C44         C  0.14575673  0.56377889  0.39551358    -0.01900
C45         C  0.16275971  0.57397560  0.37175317     0.06700
C46         C  0.14540629  0.56602410  0.34857010     0.04800
H47         H  0.15195576  0.56567931  0.41763009     0.09900
H48         H  0.15129013  0.57007060  0.32621834     0.08700
C49         C  0.34541481  0.64956645  0.37023662     0.04700
C50         C  0.35850304  0.67814921  0.36965361    -0.11400
C51         C  0.34299446  0.69097773  0.36967580     0.02200
C52         C  0.31423286  0.67508674  0.37021348    -0.09900
C53         C  0.30095427  0.64646500  0.37074996     0.04700
C54         C  0.31662674  0.63376284  0.37081528    -0.09300
H55         H  0.38072243  0.69038977  0.36920965     0.10300
H56         H  0.30221357  0.68496923  0.37019896     0.07900
H57         H  0.30646304  0.61167246  0.37122941     0.07700
N58         N  0.48725135  0.54202663  0.43232122    -0.25700
N59         N  0.49935277  0.53142612  0.41757439    -0.33500
C60         C  0.51087474  0.52182694  0.43558977     0.02700
C61         C  0.50582011  0.52642307  0.46314962     0.08700
C62         C  0.49076250  0.53934840  0.46044531    -0.04400
H63         H  0.52168780  0.51168355  0.42905273     0.09400
H64         H  0.48269759  0.54600022  0.47746818     0.10600
Cu65       Cu  0.49844629  0.52847856  0.37382323     0.44200
Cu66       Cu  0.46626538  0.55864349  0.41214109     0.42000
Cu67       Cu  0.46190250  0.55210855  0.33273742     0.43900
N68         N  0.49299706  0.52254792  0.33055157    -0.33100
N69         N  0.47929876  0.53089069  0.31484063    -0.27300
C70         C  0.47812380  0.52225316  0.28785725    -0.03400
C71         C  0.49172814  0.50772817  0.28687031     0.08800
C72         C  0.50089561  0.50849875  0.31429449     0.02600
H73         H  0.46771279  0.52584711  0.27053966     0.10300
H74         H  0.51192430  0.49890753  0.32209721     0.09300
N75         N  0.44553451  0.57104213  0.35720801    -0.34500
N76         N  0.44705947  0.57326230  0.38543854    -0.26700
C77         C  0.43368127  0.58584718  0.39400428    -0.01900
C78         C  0.42328069  0.59178407  0.37017401     0.06700
C79         C  0.43111675  0.58218396  0.34723199     0.04800
H80         H  0.43136475  0.58998226  0.41603450     0.09900
H81         H  0.42633917  0.58283669  0.32496046     0.08700
N82         N  0.51880664  0.04618173  0.18073964    -0.25700
N83         N  0.50573793  0.02401673  0.16504785    -0.33500
C84         C  0.49393389  0.00193564  0.18259032     0.02700
C85         C  0.49979881  0.01044788  0.21064516     0.08700
C86         C  0.51562234  0.03871739  0.20861585    -0.04400
H87         H  0.48205169  0.98108681  0.17542654     0.09400
H88         H  0.52434871  0.05290245  0.22600452     0.10600
Cu89       Cu  0.50480444  0.02447679  0.12024275     0.44200
Cu90       Cu  0.54069046  0.08572301  0.16352712     0.42000
Cu91       Cu  0.54010653  0.09095492  0.08601939     0.42700
N92         N  0.50736074  0.03032909  0.07574561    -0.33100
N93         N  0.52023361  0.05480760  0.06342930    -0.27300
C94         C  0.51867873  0.05207060  0.03483512    -0.03400
C95         C  0.50419351  0.02457846  0.02861216     0.08800
C96         C  0.49729529  0.01133530  0.05516194     0.02600
H97         H  0.52769672  0.06892880  0.01961444     0.10300
H98         H  0.48599168  0.98956284  0.05932952     0.09300
N99         N  0.55960152  0.12449478  0.11253135    -0.34500
N100        N  0.56006029  0.12270656  0.14075336    -0.26700
C101        C  0.57392288  0.14810210  0.15138414    -0.01900
C102        C  0.58248066  0.16658042  0.12877033     0.06700
C103        C  0.57309566  0.15100343  0.10449307     0.04800
H104        H  0.57710187  0.15273643  0.17390713     0.09900
H105        H  0.57551996  0.15834886  0.08261659     0.08700
N106        N  0.50207538  0.45505029  0.18464690    -0.25700
N107        N  0.48797132  0.46298093  0.16903464    -0.33500
C108        C  0.47929664  0.47624770  0.18551138     0.02700
C109        C  0.48837174  0.47692499  0.21296590     0.08700
C110        C  0.50272333  0.46315210  0.21176938    -0.04400
H111        H  0.46802482  0.48561133  0.17779273     0.09400
H112        H  0.51349345  0.45993109  0.22898445     0.10600
Cu113      Cu  0.48372926  0.45837323  0.12549554     0.44200
Cu114      Cu  0.52124122  0.43567411  0.16644412     0.42000
Cu115      Cu  0.52034946  0.43298804  0.08687674     0.43900
N116        N  0.48545410  0.45828335  0.08160066    -0.33100
N117        N  0.49927740  0.44955480  0.06682971    -0.27300
C118        C  0.49759774  0.45424277  0.03877739    -0.03400
C119        C  0.48193989  0.46652949  0.03612397     0.08800
C120        C  0.47461830  0.46865334  0.06364510     0.02600
H121        H  0.50745132  0.44954224  0.02181251     0.10300
H122        H  0.46288068  0.47781418  0.07025644     0.09300
N123        N  0.53930171  0.41799090  0.11340333    -0.34500
N124        N  0.53958746  0.41884597  0.14173810    -0.26700
C125        C  0.55419401  0.40789558  0.15165610    -0.01900
C126        C  0.56345024  0.39984821  0.12856109     0.06700
C127        C  0.55368560  0.40649052  0.10469803     0.04800
H128        H  0.55810678  0.40630036  0.17401594     0.09900
H129        H  0.55708319  0.40354966  0.08258210     0.08700
C130        C  0.64351544  0.34454923  0.12940301     0.04700
C131        C  0.63086224  0.31600834  0.13030418    -0.11400
C132        C  0.64677705  0.30361586  0.13044724     0.02200
C133        C  0.67550819  0.31990471  0.12977590    -0.09900
C134        C  0.68834405  0.34849199  0.12893039     0.04700
C135        C  0.67226833  0.36075464  0.12869380    -0.09300
H136        H  0.60866457  0.30346095  0.13083439     0.10300
H137        H  0.68784443  0.31036095  0.12990952     0.07900
H138        H  0.68209249  0.38281675  0.12802819     0.07700
N139        N  0.94301144  0.48828705  0.06712666    -0.25700
N140        N  0.96578493  0.50257938  0.08176771    -0.33500
C141        C  0.98737174  0.51409474  0.06377366     0.02700
C142        C  0.97792422  0.50680828  0.03632457     0.08700
C143        C  0.94959691  0.49042958  0.03909997    -0.04400
H144        H  0.00852459  0.52620899  0.07032412     0.09400
H145        H  0.93495190  0.48022187  0.02225947     0.10600
Cu146      Cu  0.96717198  0.50383180  0.12556868     0.44200
Cu147      Cu  0.90479476  0.46561308  0.08733472     0.42000
Cu148      Cu  0.90540324  0.46190725  0.16634429     0.43900
N149        N  0.96675186  0.49879391  0.16909692    -0.33100
N150        N  0.94444956  0.48291586  0.18448676    -0.27300
C151        C  0.95197798  0.48236515  0.21170414    -0.03400
C152        C  0.98039024  0.49868489  0.21316289     0.08800
C153        C  0.98888972  0.50880332  0.18582247     0.02600
H154        H  0.93788096  0.47049790  0.22884011     0.10300
H155        H  0.00980966  0.52170885  0.17832851     0.09300
N156        N  0.86984710  0.44403812  0.14158597    -0.34500
N157        N  0.86973135  0.44536135  0.11326402    -0.26700
C158        C  0.84355652  0.43215930  0.10429527    -0.01900
C159        C  0.82645000  0.42212388  0.12798180     0.06700
C160        C  0.84369413  0.42995640  0.15125059     0.04800
H161        H  0.83746228  0.43023074  0.08214046     0.09900
H162        H  0.83770532  0.42591385  0.17357610     0.08700
C163        C  0.71800103  0.36516978  0.12848849    -0.16900
C164        C  0.74281922  0.37871172  0.12833602     0.07200
C165        C  0.77194884  0.39414063  0.12831307     0.09000
C166        C  0.79678747  0.40697983  0.12827676    -0.17700
C167        C  0.62688777  0.35709301  0.12926319    -0.16900
C168        C  0.61252200  0.36707480  0.12923457     0.07200
C169        C  0.59538288  0.37844285  0.12923159     0.09000
C170        C  0.58073459  0.38810213  0.12909568    -0.17700
C171        C  0.59690744  0.19598082  0.13016198    -0.16900
C172        C  0.60866632  0.22062681  0.13083454     0.07200
C173        C  0.62220351  0.24952758  0.13115353     0.09000
C174        C  0.63355458  0.27417176  0.13103582    -0.17700
C175        C  0.51445058  0.51777882  0.48892604    -0.14800
C176        C  0.47500095  0.47702794  0.01053461    -0.30000
H177        H  0.52659417  0.50829045  0.48546682     0.14200
H178        H  0.46236770  0.48598727  0.01396684     0.14800
C179        C  0.49539626  0.49314798  0.26288463    -0.14800
C180        C  0.48446899  0.49127697  0.23702802    -0.30000
H181        H  0.50738397  0.48353558  0.26688283     0.14200
H182        H  0.47243732  0.50084581  0.23304939     0.14800
C183        C  0.40656433  0.60417252  0.36963595    -0.16900
C184        C  0.39234620  0.61432144  0.36964030     0.07200
C185        C  0.37565128  0.62619769  0.36990189     0.09000
C186        C  0.36163391  0.63657063  0.37011749    -0.17700
C187        C  0.99008487  0.49093741  0.26279162    -0.14800
C188        C  0.99894815  0.50366245  0.23738806    -0.30000
H189        H  0.96838139  0.47653928  0.26627904     0.14200
H190        H  0.02065718  0.51802342  0.23388531     0.14800
C191        C  0.99568719  0.51404041  0.01072279    -0.14800
C192        C  0.99386399  0.48069876  0.48952300    -0.30000
H193        H  0.01763774  0.52604414  0.01410507     0.14200
H194        H  0.97190701  0.46858438  0.48622320     0.14800
C195        C  0.19243062  0.58914697  0.37130363    -0.16900
C196        C  0.21727627  0.60187095  0.37117579     0.07200
C197        C  0.24642173  0.61700779  0.37113352     0.09000
C198        C  0.27125949  0.63021223  0.37104586    -0.17700
C199        C  0.49769972  0.00189645  0.26332747    -0.14800
C200        C  0.49093698  0.99239743  0.23653350    -0.30000
H201        H  0.51012245  0.02372783  0.26662250     0.14200
H202        H  0.47848301  0.97056811  0.23323061     0.14800
C203        C  0.49080101  0.98264921  0.50042055    -0.14800
C204        C  0.49838416  0.01292004  0.99943712    -0.30000
H205        H  0.48370643  0.96860718  0.51860619     0.14200
H206        H  0.50587951  0.02707566  0.98134740     0.14800
C207        C  0.39385609  0.79868747  0.37050245    -0.16900
C208        C  0.38200988  0.77403547  0.36978654     0.07200
C209        C  0.36826392  0.74512090  0.36934878     0.09000
C210        C  0.35664835  0.72045889  0.36932212    -0.17700
N211        N  0.46436912  0.94234838  0.93247622    -0.25700
N212        N  0.47636680  0.96631758  0.91901010    -0.33500
C213        C  0.48562567  0.98608553  0.93886760     0.02700
C214        C  0.47903589  0.97376189  0.96592828     0.08700
C215        C  0.46561373  0.94614221  0.96083763    -0.04400
H216        H  0.49635797  0.00772285  0.93393972     0.09400
H217        H  0.45738372  0.92983258  0.97671060     0.10600
Cu218      Cu  0.47916243  0.97015167  0.87397376     0.44200
Cu219      Cu  0.44662520  0.90473690  0.91306513     0.42000
Cu220      Cu  0.44541105  0.90365668  0.83779805     0.43900
N221        N  0.47712945  0.96546145  0.82914090    -0.33100
N222        N  0.46462803  0.94135542  0.81669313    -0.27300
C223        C  0.46671263  0.94501341  0.78813787    -0.03400
C224        C  0.48120152  0.97263761  0.78188314     0.08800
C225        C  0.48754446  0.98509479  0.80846884     0.02600
H226        H  0.45831386  0.92860564  0.77291464     0.10300
H227        H  0.49887598  0.00675768  0.81254810     0.09300
N228        N  0.42891296  0.86809917  0.86256536    -0.34500
N229        N  0.42955829  0.86864234  0.89079031    -0.26700
C230        C  0.41770546  0.84293393  0.90121754    -0.01900
C231        C  0.40921504  0.82543046  0.87837832     0.06700
C232        C  0.41659061  0.84195040  0.85417215     0.04800
H233        H  0.41541885  0.83744774  0.92370969     0.09900
H234        H  0.41326764  0.83549216  0.83215047     0.08700
N235        N  0.04097780  0.52833182  0.93090340    -0.25700
N236        N  0.01898905  0.51628788  0.91467296    -0.33500
C237        C  0.99639541  0.50663806  0.93120846     0.02700
C238        C  0.00447323  0.51296124  0.95924315     0.08700
C239        C  0.03293866  0.52669519  0.95829641    -0.04400
H240        H  0.97561260  0.49606673  0.92333045     0.09400
H241        H  0.04690175  0.53503528  0.97602153     0.10600
Cu242      Cu  0.02063759  0.51464740  0.87077928     0.44200
Cu243      Cu  0.08087588  0.54686493  0.91487066     0.42000
Cu244      Cu  0.08774445  0.54576028  0.83770529     0.43900
N245        N  0.02713964  0.51740959  0.82719519    -0.33100
N246        N  0.05163997  0.52883835  0.81494233    -0.27300
C247        C  0.04863597  0.52664072  0.78642709    -0.03400
C248        C  0.02092970  0.51306677  0.78055422     0.08800
C249        C  0.00787593  0.50761863  0.80691410     0.02600
H250        H  0.06536455  0.53387140  0.77114097     0.10300
H251        H  0.98606267  0.49692549  0.81129135     0.09300
N252        N  0.12063103  0.56230644  0.86530035    -0.34500
N253        N  0.11829635  0.56316615  0.89338067    -0.26700
C254        C  0.14352391  0.57554375  0.90482323    -0.01900
C255        C  0.16239764  0.58261806  0.88285221     0.06700
C256        C  0.14730995  0.57396659  0.85813793     0.04800
H257        H  0.14774094  0.57892349  0.92742439     0.09900
H258        H  0.15507998  0.57592834  0.83654270     0.08700
C259        C  0.34241163  0.64555981  0.88705641     0.04700
C260        C  0.35702072  0.67420276  0.88599763    -0.11400
C261        C  0.34292373  0.68847174  0.88546401     0.02200
C262        C  0.31418429  0.67402618  0.88600702    -0.09900
C263        C  0.29950873  0.64542473  0.88698300     0.04700
C264        C  0.31363726  0.63119814  0.88751734    -0.09300
H265        H  0.37926180  0.68533786  0.88553689     0.10300
H266        H  0.30325089  0.68502576  0.88553272     0.07900
H267        H  0.30229710  0.60906061  0.88822814     0.07700
N268        N  0.46170276  0.50893920  0.93132053    -0.25700
N269        N  0.47330973  0.49903624  0.91467657    -0.33500
C270        C  0.48285706  0.48613737  0.93090868     0.02700
C271        C  0.47685331  0.48781624  0.95915976     0.08700
C272        C  0.46346105  0.50248588  0.95865420    -0.04400
H273        H  0.49335774  0.47621907  0.92270659     0.09400
H274        H  0.45568945  0.50829464  0.97667893     0.10600
Cu275      Cu  0.47587813  0.50360084  0.87081656     0.44200
Cu276      Cu  0.44436215  0.53117037  0.91624435     0.42000
Cu277      Cu  0.45084908  0.54478121  0.83973872     0.43900
N278        N  0.47813500  0.51255055  0.82774682    -0.33100
N279        N  0.46938014  0.52794696  0.81621305    -0.27300
C280        C  0.47441820  0.53018533  0.78789177    -0.03400
C281        C  0.48683261  0.51540542  0.78138932     0.08800
C282        C  0.48888980  0.50450119  0.80720214     0.02600
H283        H  0.46931794  0.54163054  0.77311442     0.10300
H284        H  0.49762912  0.49178556  0.81103126     0.09300
N285        N  0.43215369  0.55845314  0.86758501    -0.34500
N286        N  0.42955032  0.55345703  0.89547994    -0.26700
C287        C  0.41613153  0.56492311  0.90706065    -0.01900
C288        C  0.41013816  0.57764477  0.88534543     0.06700
C289        C  0.42052279  0.57318324  0.86067518     0.04800
H290        H  0.41104713  0.56394838  0.92953024     0.09900
H291        H  0.41956657  0.57996657  0.83922920     0.08700
N292        N  0.52480619  0.05512583  0.68279005    -0.25700
N293        N  0.51229766  0.03097561  0.67043556    -0.33500
C294        C  0.50199343  0.01141347  0.69117700     0.02700
C295        C  0.50841167  0.02395479  0.71771778     0.08700
C296        C  0.52283623  0.05156386  0.71136219    -0.04400
H297        H  0.49066252  0.98973745  0.68717076     0.09400
H298        H  0.53123892  0.06802302  0.72652456     0.10600
Cu299      Cu  0.51002813  0.02610191  0.62562763     0.44200
Cu300      Cu  0.54376116  0.09273148  0.66149543     0.42000
Cu301      Cu  0.54145910  0.09133300  0.58620763     0.42700
N302        N  0.51243616  0.02971523  0.58056881    -0.33100
N303        N  0.52398203  0.05360445  0.56696542    -0.27300
C304        C  0.52259224  0.04964961  0.53862135    -0.03400
C305        C  0.50955774  0.02200958  0.53368997     0.08800
C306        C  0.50334338  0.00984890  0.56083034     0.02600
H307        H  0.53050008  0.06586245  0.52264863     0.10300
H308        H  0.49299386  0.98825112  0.56589341     0.09300
N309        N  0.55863285  0.12753970  0.60839060    -0.34500
N310        N  0.55971871  0.12817608  0.63660167    -0.26700
C311        C  0.57207298  0.15434442  0.64493557    -0.01900
C312        C  0.57900780  0.17079954  0.62071767     0.06700
C313        C  0.57023010  0.15322338  0.59792095     0.04800
H314        H  0.57574373  0.16086434  0.66693203     0.09900
H315        H  0.57219260  0.15864914  0.57542798     0.08700
N316        N  0.53085765  0.47873070  0.68472081    -0.25700
N317        N  0.52200932  0.49396374  0.67295736    -0.33500
C318        C  0.51194291  0.50278044  0.69347316     0.02700
C319        C  0.51454547  0.49252801  0.71947363     0.08700
C320        C  0.52656842  0.47736317  0.71313297    -0.04400
H321        H  0.50305968  0.51534752  0.68949158     0.09400
H322        H  0.53169864  0.46604654  0.72805762     0.10600
Cu323      Cu  0.52257668  0.50104738  0.62958395     0.44200
Cu324      Cu  0.54800602  0.46038430  0.66146200     0.42000
Cu325      Cu  0.55092761  0.47010729  0.58454211     0.43900
N326        N  0.52268565  0.50290832  0.58554293    -0.33100
N327        N  0.53313372  0.49175506  0.56903968    -0.27300
C328        C  0.52965737  0.49632087  0.54154321    -0.03400
C329        C  0.51633265  0.51105107  0.54077341     0.08800
C330        C  0.51218841  0.51475638  0.56905537     0.02600
H331        H  0.53614557  0.48912063  0.52360817     0.10300
H332        H  0.50220389  0.52524084  0.57709954     0.09300
N333        N  0.56604982  0.44825427  0.60559219    -0.34500
N334        N  0.56476925  0.44465867  0.63368617    -0.26700
C335        C  0.57600388  0.42958368  0.64070191    -0.01900
C336        C  0.58473031  0.42343521  0.61587256     0.06700
C337        C  0.57818148  0.43552062  0.59397714     0.04800
H338        H  0.57770552  0.42360714  0.66229275     0.09900
H339        H  0.58191406  0.43510588  0.57133664     0.08700
C340        C  0.64808011  0.35130512  0.61286173     0.04700
C341        C  0.63293044  0.32265872  0.61373934    -0.11400
C342        C  0.64648477  0.30785488  0.61438051     0.02200
C343        C  0.67521742  0.32177768  0.61412381    -0.09900
C344        C  0.69041973  0.35037445  0.61327824     0.04700
C345        C  0.67683657  0.36512799  0.61263541    -0.09300
H346        H  0.61069918  0.31193979  0.61401298     0.10300
H347        H  0.68573581  0.31037312  0.61468904     0.07900
H348        H  0.68858843  0.38726393  0.61205622     0.07700
N349        N  0.94880480  0.46641073  0.56951383    -0.25700
N350        N  0.97084155  0.47865410  0.58565655    -0.33500
C351        C  0.99339013  0.48834024  0.56903885     0.02700
C352        C  0.98522711  0.48183820  0.54104498     0.08700
C353        C  0.95676185  0.46795509  0.54210420    -0.04400
H354        H  0.01420273  0.49908484  0.57682899     0.09400
H355        H  0.94274314  0.45946516  0.52444220     0.10600
Cu356      Cu  0.96929340  0.48057936  0.62954458     0.44200
Cu357      Cu  0.90894944  0.44776918  0.58565844     0.42000
Cu358      Cu  0.90215702  0.44948407  0.66270849     0.43900
N359        N  0.96280524  0.47814487  0.67313249    -0.33100
N360        N  0.93830996  0.46673212  0.68539901    -0.27300
C361        C  0.94133134  0.46912102  0.71390103    -0.03400
C362        C  0.96904127  0.48280399  0.71975514     0.08800
C363        C  0.98208225  0.48811929  0.69339868     0.02600
H364        H  0.92460659  0.46190633  0.72918993     0.10300
H365        H  0.00389403  0.49880767  0.68901393     0.09300
N366        N  0.86921940  0.43250445  0.63519845    -0.34500
N367        N  0.87153243  0.43140668  0.60714764    -0.26700
C368        C  0.84629094  0.41881752  0.59573435    -0.01900
C369        C  0.82743028  0.41185221  0.61769717     0.06700
C370        C  0.84253965  0.42079441  0.64237312     0.04800
H371        H  0.84205865  0.41526549  0.57315302     0.09900
H372        H  0.83478611  0.41903462  0.66394387     0.08700
C373        C  0.71996225  0.36444304  0.61334252    -0.16900
C374        C  0.74464225  0.37550989  0.61364926     0.07200
C375        C  0.77349740  0.38801747  0.61436261     0.09000
C376        C  0.79811374  0.39873383  0.61546658    -0.17700
C377        C  0.63414866  0.36654052  0.61245849    -0.16900
C378        C  0.62264591  0.37943832  0.61236489     0.07200
C379        C  0.60932013  0.39468733  0.61267857     0.09000
C380        C  0.59805831  0.40778743  0.61359191    -0.17700
C381        C  0.59286064  0.20019511  0.61941224    -0.16900
C382        C  0.60464286  0.22483410  0.61816212     0.07200
C383        C  0.61869786  0.25372374  0.61669853     0.09000
C384        C  0.63104033  0.27838081  0.61555189    -0.17700
C385        C  0.48373804  0.47633017  0.98406566    -0.14800
C386        C  0.50776395  0.52070558  0.51561929    -0.30000
H387        H  0.49615476  0.46714676  0.98044975     0.14200
H388        H  0.49577373  0.53034973  0.51922800     0.14800
C389        C  0.49562731  0.51221625  0.75274607    -0.14800
C390        C  0.50602339  0.49605595  0.74810196    -0.30000
H391        H  0.49324099  0.52336491  0.73513376     0.14200
H392        H  0.50842270  0.48492456  0.76571820     0.14800
C393        C  0.39561777  0.59215124  0.88752196    -0.16900
C394        C  0.38342568  0.60436322  0.88811011     0.07200
C395        C  0.36913528  0.61868256  0.88796354     0.09000
C396        C  0.35694899  0.63091524  0.88758025    -0.17700
C397        C  0.00861516  0.50514182  0.75204207    -0.14800
C398        C  0.98136029  0.49081870  0.74825519    -0.30000
H399        H  0.02250752  0.51112329  0.73383664     0.14200
H400        H  0.96746751  0.48483984  0.76645990     0.14800
C401        C  0.00361690  0.48863052  0.51594279    -0.14800
C402        C  0.98600685  0.50619184  0.98426992    -0.30000
H403        H  0.02557852  0.50051195  0.51937324     0.14200
H404        H  0.96405410  0.49441188  0.98075435     0.14800
C405        C  0.19171924  0.59575475  0.88508679    -0.16900
C406        C  0.21634976  0.60660416  0.88619794     0.07200
C407        C  0.24523592  0.61940501  0.88689160     0.09000
C408        C  0.26994439  0.63082432  0.88711696    -0.17700
C409        C  0.48782132  0.98480542  0.75251280    -0.14800
C410        C  0.50184482  0.01183866  0.74711633    -0.30000
H411        H  0.48076979  0.97080386  0.73475009     0.14200
H412        H  0.50889912  0.02584820  0.76487320     0.14800
C413        C  0.48464321  0.98591847  0.99481124    -0.14800
C414        C  0.50399847  0.00967802  0.50487628    -0.30000
H415        H  0.47723932  0.97182178  0.01294768     0.14200
H416        H  0.51100231  0.02366017  0.48664503     0.14800
C417        C  0.39536318  0.79604876  0.87966713    -0.16900
C418        C  0.38367329  0.77142656  0.88104564     0.07200
C419        C  0.36985755  0.74256690  0.88274035     0.09000
C420        C  0.35783747  0.71793141  0.88408804    -0.17700
loop_ 
_geom_bond_atom_site_label_1 
_geom_bond_atom_site_label_2 
_geom_bond_distance 
_geom_bond_site_symmetry_2 
_ccdc_geom_bond_type 
N1            N2   1.322       .  A
N1            C5   1.346       .  A
N1           Cu9   2.080       .  S
N2            C3   1.350       .  A
N2           Cu8   2.096       .  S
C3            C4   1.392       .  A
C3            H6   1.081   1_565  S
C4            C5   1.383       .  A
C4          C203   1.488       .  S
C5            H7   1.082       .  S
Cu8          N11   2.096       .  S
Cu9          N19   2.080       .  S
Cu10         N12   2.088       .  S
Cu10         N18   2.087       .  S
N11          N12   1.324       .  A
N11          C15   1.347       .  A
N12          C13   1.349       .  A
C13          C14   1.389       .  A
C13          H16   1.081       .  S
C14          C15   1.386       .  A
C14         C199   1.488   1_565  S
C15          H17   1.082   1_565  S
N18          N19   1.324       .  A
N18          C22   1.348       .  A
N19          C20   1.347       .  A
C20          C21   1.381       .  A
C20          H23   1.082       .  S
C21          C22   1.382       .  A
C21         C207   1.444       .  S
C22          H24   1.082       .  S
N25          N26   1.321       .  A
N25          C29   1.349       .  A
N25         Cu33   2.088       .  S
N26          C27   1.341       .  A
N26         Cu32   2.052       .  S
C27          C28   1.377       .  A
C27          H30   1.082   1_455  S
C28          C29   1.390       .  A
C28         C192   1.475   1_455  S
C29          H31   1.081       .  S
Cu32         N35   2.052       .  S
Cu33         N43   2.090       .  S
Cu34         N36   2.093       .  S
Cu34         N42   2.094       .  S
N35          N36   1.321       .  A
N35          C39   1.341       .  A
N36          C37   1.349       .  A
C37          C38   1.392       .  A
C37          H40   1.081       .  S
C38          C39   1.377       .  A
C38         C187   1.477   1_455  S
C39          H41   1.082   1_455  S
N42          N43   1.326       .  A
N42          C46   1.349       .  A
N43          C44   1.348       .  A
C44          C45   1.381       .  A
C44          H47   1.082       .  S
C45          C46   1.383       .  A
C45         C195   1.447       .  S
C46          H48   1.082       .  S
C49          C50   1.403       .  A
C49          C54   1.405       .  A
C49         C186   1.447       .  S
C50          C51   1.403       .  A
C50          H55   1.085       .  S
C51          C52   1.404       .  A
C51         C210   1.447       .  S
C52          C53   1.405       .  A
C52          H56   1.084       .  S
C53          C54   1.405       .  A
C53         C198   1.449       .  S
C54          H57   1.084       .  S
N58          N59   1.321       .  A
N58          C62   1.349       .  A
N58         Cu66   2.085       .  S
N59          C60   1.340       .  A
N59         Cu65   2.054       .  S
C60          C61   1.377       .  A
C60          H63   1.082       .  S
C61          C62   1.390       .  A
C61         C175   1.474       .  S
C62          H64   1.082       .  S
Cu65         N68   2.054       .  S
Cu66         N76   2.087       .  S
Cu67         N69   2.093       .  S
Cu67         N75   2.095       .  S
N68          N69   1.320       .  A
N68          C72   1.342       .  A
N69          C70   1.350       .  A
C70          C71   1.392       .  A
C70          H73   1.081       .  S
C71          C72   1.378       .  A
C71         C179   1.480       .  S
C72          H74   1.082       .  S
N75          N76   1.327       .  A
N75          C79   1.348       .  A
N76          C77   1.347       .  A
C77          C78   1.380       .  A
C77          H80   1.082       .  S
C78          C79   1.382       .  A
C78         C183   1.444       .  S
C79          H81   1.082       .  S
N82          N83   1.324       .  A
N82          C86   1.349       .  A
N82         Cu90   2.088       .  S
N83          C84   1.348       .  A
N83         Cu89   2.096       .  S
C84          C85   1.386       .  A
C84          H87   1.082   1_545  S
C85          C86   1.389       .  A
C85         C200   1.488   1_545  S
C86          H88   1.081       .  S
Cu89         N92   2.096       .  S
Cu90        N100   2.087       .  S
Cu91         N93   2.078       .  S
Cu91         N99   2.078       .  S
N92          N93   1.322       .  A
N92          C96   1.350       .  A
N93          C94   1.346       .  A
C94          C95   1.383       .  A
C94          H97   1.082       .  S
C95          C96   1.392       .  A
C95         C204   1.487   1_554  S
C96          H98   1.081   1_545  S
N99         N100   1.324       .  A
N99         C103   1.346       .  A
N100        C101   1.348       .  A
C101        C102   1.382       .  A
C101        H104   1.082       .  S
C102        C103   1.380       .  A
C102        C171   1.444       .  S
C103        H105   1.082       .  S
N106        N107   1.321       .  A
N106        C110   1.349       .  A
N106       Cu114   2.092       .  S
N107        C108   1.342       .  A
N107       Cu113   2.055       .  S
C108        C109   1.378       .  A
C108        H111   1.082       .  S
C109        C110   1.392       .  A
C109        C180   1.480       .  S
C110        H112   1.081       .  S
Cu113       N116   2.055       .  S
Cu114       N124   2.093       .  S
Cu115       N117   2.084       .  S
Cu115       N123   2.086       .  S
N116        N117   1.321       .  A
N116        C120   1.340       .  A
N117        C118   1.349       .  A
C118        C119   1.390       .  A
C118        H121   1.082       .  S
C119        C120   1.377       .  A
C119        C176   1.474       .  S
C120        H122   1.082       .  S
N123        N124   1.326       .  A
N123        C127   1.347       .  A
N124        C125   1.348       .  A
C125        C126   1.381       .  A
C125        H128   1.082       .  S
C126        C127   1.380       .  A
C126        C170   1.443       .  S
C127        H129   1.082       .  S
C130        C131   1.403       .  A
C130        C135   1.405       .  A
C130        C167   1.447       .  S
C131        C132   1.403       .  A
C131        H136   1.085       .  S
C132        C133   1.404       .  A
C132        C174   1.447       .  S
C133        C134   1.405       .  A
C133        H137   1.084       .  S
C134        C135   1.405       .  A
C134        C163   1.449       .  S
C135        H138   1.084       .  S
N139        N140   1.321       .  A
N139        C143   1.349       .  A
N139       Cu147   2.087       .  S
N140        C141   1.341       .  A
N140       Cu146   2.051       .  S
C141        C142   1.377       .  A
C141        H144   1.082   1_655  S
C142        C143   1.390       .  A
C142        C191   1.475       .  S
C143        H145   1.081       .  S
Cu146       N149   2.051       .  S
Cu147       N157   2.089       .  S
Cu148       N150   2.094       .  S
Cu148       N156   2.095       .  S
N149        N150   1.321       .  A
N149        C153   1.341       .  A
N150        C151   1.349       .  A
C151        C152   1.392       .  A
C151        H154   1.081       .  S
C152        C153   1.376       .  A
C152        C188   1.477       .  S
C153        H155   1.082   1_655  S
N156        N157   1.326       .  A
N156        C160   1.349       .  A
N157        C158   1.348       .  A
C158        C159   1.381       .  A
C158        H161   1.082       .  S
C159        C160   1.383       .  A
C159        C166   1.446       .  S
C160        H162   1.082       .  S
C163        C164   1.211       .  T
C164        C165   1.421       .  S
C165        C166   1.211       .  T
C167        C168   1.210       .  T
C168        C169   1.418       .  S
C169        C170   1.209       .  T
C171        C172   1.210       .  T
C172        C173   1.418       .  S
C173        C174   1.210       .  T
C175        H177   1.085       .  S
C175        C386   1.341       .  D
C176        H178   1.085       .  S
C176        C385   1.341   1_554  D
C179        H181   1.085       .  S
C179        C180   1.341       .  D
C180        H182   1.085       .  S
C183        C184   1.210       .  T
C184        C185   1.419       .  S
C185        C186   1.210       .  T
C187        H189   1.086       .  S
C187        C188   1.339       .  D
C188        H190   1.086   1_655  S
C191        H193   1.085   1_655  S
C191        C402   1.341   1_554  D
C192        H194   1.085       .  S
C192        C401   1.341   1_655  D
C195        C196   1.211       .  T
C196        C197   1.421       .  S
C197        C198   1.211       .  T
C199        H201   1.085       .  S
C199        C200   1.348   1_545  D
C200        H202   1.085       .  S
C203        H205   1.085       .  S
C203        C414   1.344   1_565  D
C204        H206   1.085       .  S
C204        C413   1.344   1_545  D
C207        C208   1.210       .  T
C208        C209   1.419       .  S
C209        C210   1.210       .  T
N211        N212   1.324       .  A
N211        C215   1.343       .  A
N211       Cu219   2.069       .  S
N212        C213   1.353       .  A
N212       Cu218   2.112       .  S
C213        C214   1.394       .  A
C213        H216   1.082   1_565  S
C214        C215   1.378       .  A
C214        C413   1.485       .  S
C215        H217   1.082       .  S
Cu218       N221   2.113       .  S
Cu219       N229   2.068       .  S
Cu220       N222   2.081       .  S
Cu220       N228   2.079       .  S
N221        N222   1.325       .  A
N221        C225   1.353       .  A
N222        C223   1.345       .  A
C223        C224   1.380       .  A
C223        H226   1.082       .  S
C224        C225   1.394       .  A
C224        C409   1.489       .  S
C225        H227   1.081   1_565  S
N228        N229   1.321       .  A
N228        C232   1.347       .  A
N229        C230   1.346       .  A
C230        C231   1.380       .  A
C230        H233   1.082       .  S
C231        C232   1.383       .  A
C231        C417   1.442       .  S
C232        H234   1.082       .  S
N235        N236   1.321       .  A
N235        C239   1.345       .  A
N235       Cu243   2.080       .  S
N236        C237   1.344   1_455  A
N236       Cu242   2.060       .  S
C237        C238   1.380   1_655  A
C237        H240   1.082       .  S
C238        C239   1.389       .  A
C238        C402   1.478   1_455  S
C239        H241   1.081       .  S
Cu242       N245   2.060       .  S
Cu243       N253   2.080       .  S
Cu244       N246   2.068       .  S
Cu244       N252   2.069       .  S
N245        N246   1.321       .  A
N245        C249   1.342       .  A
N246        C247   1.344       .  A
C247        C248   1.382       .  A
C247        H250   1.082       .  S
C248        C249   1.384       .  A
C248        C397   1.472       .  S
C249        H251   1.081   1_455  S
N252        N253   1.323       .  A
N252        C256   1.345       .  A
N253        C254   1.347       .  A
C254        C255   1.381       .  A
C254        H257   1.082       .  S
C255        C256   1.378       .  A
C255        C405   1.438       .  S
C256        H258   1.082       .  S
C259        C260   1.403       .  A
C259        C264   1.403       .  A
C259        C396   1.443       .  S
C260        C261   1.403       .  A
C260        H265   1.084       .  S
C261        C262   1.401       .  A
C261        C420   1.444       .  S
C262        C263   1.401       .  A
C262        H266   1.085       .  S
C263        C264   1.402       .  A
C263        C408   1.442       .  S
C264        H267   1.085       .  S
N268        N269   1.322       .  A
N268        C272   1.344       .  A
N268       Cu276   2.081       .  S
N269        C270   1.344       .  A
N269       Cu275   2.060       .  S
C270        C271   1.380       .  A
C270        H273   1.082       .  S
C271        C272   1.388       .  A
C271        C385   1.478       .  S
C272        H274   1.081       .  S
Cu275       N278   2.059       .  S
Cu276       N286   2.081       .  S
Cu277       N279   2.071       .  S
Cu277       N285   2.072       .  S
N278        N279   1.321       .  A
N278        C282   1.342       .  A
N279        C280   1.345       .  A
C280        C281   1.383       .  A
C280        H283   1.082       .  S
C281        C282   1.384       .  A
C281        C389   1.473       .  S
C282        H284   1.081       .  S
N285        N286   1.323       .  A
N285        C289   1.344       .  A
N286        C287   1.348       .  A
C287        C288   1.382       .  A
C287        H290   1.082       .  S
C288        C289   1.378       .  A
C288        C393   1.440       .  S
C289        H291   1.082       .  S
N292        N293   1.325       .  A
N292        C296   1.345       .  A
N292       Cu300   2.081       .  S
N293        C294   1.353       .  A
N293       Cu299   2.113       .  S
C294        C295   1.394       .  A
C294        H297   1.081   1_545  S
C295        C296   1.380       .  A
C295        C410   1.489       .  S
C296        H298   1.082       .  S
Cu299       N302   2.112       .  S
Cu300       N310   2.080       .  S
Cu301       N303   2.071       .  S
Cu301       N309   2.071       .  S
N302        N303   1.324       .  A
N302        C306   1.353       .  A
N303        C304   1.343       .  A
C304        C305   1.379       .  A
C304        H307   1.082       .  S
C305        C306   1.394       .  A
C305        C414   1.486       .  S
C306        H308   1.082   1_545  S
N309        N310   1.321       .  A
N309        C313   1.346       .  A
N310        C311   1.347       .  A
C311        C312   1.383       .  A
C311        H314   1.082       .  S
C312        C313   1.381       .  A
C312        C381   1.442       .  S
C313        H315   1.082       .  S
N316        N317   1.321       .  A
N316        C320   1.344       .  A
N316       Cu324   2.071       .  S
N317        C318   1.342       .  A
N317       Cu323   2.060       .  S
C318        C319   1.384       .  A
C318        H321   1.081       .  S
C319        C320   1.382       .  A
C319        C390   1.473       .  S
C320        H322   1.082       .  S
Cu323       N326   2.061       .  S
Cu324       N334   2.071       .  S
Cu325       N327   2.080       .  S
Cu325       N333   2.080       .  S
N326        N327   1.322       .  A
N326        C330   1.344       .  A
N327        C328   1.344       .  A
C328        C329   1.388       .  A
C328        H331   1.081       .  S
C329        C330   1.380       .  A
C329        C386   1.478       .  S
C330        H332   1.082       .  S
N333        N334   1.323       .  A
N333        C337   1.347       .  A
N334        C335   1.345       .  A
C335        C336   1.379       .  A
C335        H338   1.082       .  S
C336        C337   1.382       .  A
C336        C380   1.439       .  S
C337        H339   1.082       .  S
C340        C341   1.404       .  A
C340        C345   1.403       .  A
C340        C377   1.443       .  S
C341        C342   1.403       .  A
C341        H346   1.084       .  S
C342        C343   1.401       .  A
C342        C384   1.444       .  S
C343        C344   1.401       .  A
C343        H347   1.085       .  S
C344        C345   1.402       .  A
C344        C373   1.441       .  S
C345        H348   1.085       .  S
N349        N350   1.321       .  A
N349        C353   1.345       .  A
N349       Cu357   2.080       .  S
N350        C351   1.344       .  A
N350       Cu356   2.061       .  S
C351        C352   1.380       .  A
C351        H354   1.082   1_655  S
C352        C353   1.389       .  A
C352        C401   1.478   1_655  S
C353        H355   1.081       .  S
Cu356       N359   2.061       .  S
Cu357       N367   2.080       .  S
Cu358       N360   2.068       .  S
Cu358       N366   2.068       .  S
N359        N360   1.321       .  A
N359        C363   1.342       .  A
N360        C361   1.344       .  A
C361        C362   1.381       .  A
C361        H364   1.082       .  S
C362        C363   1.384       .  A
C362        C398   1.472       .  S
C363        H365   1.081   1_655  S
N366        N367   1.323       .  A
N366        C370   1.344       .  A
N367        C368   1.347       .  A
C368        C369   1.381       .  A
C368        H371   1.082       .  S
C369        C370   1.378       .  A
C369        C376   1.438       .  S
C370        H372   1.082       .  S
C373        C374   1.207       .  T
C374        C375   1.413       .  S
C375        C376   1.206       .  T
C377        C378   1.208       .  T
C378        C379   1.415       .  S
C379        C380   1.207       .  T
C381        C382   1.209       .  T
C382        C383   1.417       .  S
C383        C384   1.209       .  T
C385        H387   1.085       .  S
C386        H388   1.085       .  S
C389        H391   1.085       .  S
C389        C390   1.343       .  D
C390        H392   1.085       .  S
C393        C394   1.207       .  T
C394        C395   1.415       .  S
C395        C396   1.208       .  T
C397        H399   1.085       .  S
C397        C398   1.343   1_455  D
C398        H400   1.085       .  S
C401        H403   1.085       .  S
C402        H404   1.085       .  S
C405        C406   1.206       .  T
C406        C407   1.413       .  S
C407        C408   1.207       .  T
C409        H411   1.086       .  S
C409        C410   1.344   1_565  D
C410        H412   1.086       .  S
C413        H415   1.085   1_556  S
C414        H416   1.085       .  S
C417        C418   1.208       .  T
C418        C419   1.416       .  S
C419        C420   1.208       .  T
