geometry optimzed in LAMMPS
_audit_creation_date              2020-11-30 
_audit_creation_method            'lammps2cif' 
_symmetry_space_group_name_H-M    'P1' 
_symmetry_Int_Tables_number       1 
_symmetry_cell_setting            triclinic 
loop_ 
_symmetry_equiv_pos_as_xyz 
  x,y,z 
_cell_length_a                    60.11312919 
_cell_length_b                    60.09007833139441 
_cell_length_c                    60.03223751316495 
_cell_angle_alpha                 89.98510698073976 
_cell_angle_beta                  89.94857858016302 
_cell_angle_gamma                 90.15635769344132 
loop_ 
_atom_site_label 
_atom_site_type_symbol 
_atom_site_fract_x 
_atom_site_fract_y 
_atom_site_fract_z 
_atom_site_charge 
N1          N  0.21211049  0.28090590  0.24255426    -0.27100
N2          N  0.22396669  0.28688998  0.22498377    -0.35000
C3          C  0.21255938  0.30227372  0.21340326     0.01200
C4          C  0.19250664  0.30582368  0.22414830     0.07200
C5          C  0.19280603  0.29205343  0.24253731    -0.05900
H6          H  0.21779945  0.30917206  0.19759162     0.07900
H7          H  0.17955077  0.28950916  0.25447865     0.09100
Cu8        Cu  0.25318901  0.27106772  0.21585604     0.44200
Cu9        Cu  0.22097204  0.25593079  0.26431653     0.42000
Cu10       Cu  0.26912945  0.22360586  0.25012471     0.43900
N11         N  0.27926103  0.24980836  0.20838818    -0.34500
N12         N  0.28516216  0.23267225  0.22087297    -0.28800
C13         C  0.30120318  0.22121560  0.21030094    -0.04900
C14         C  0.30546875  0.23155182  0.19015742     0.07300
C15         C  0.29131996  0.24964366  0.18952245     0.01100
H16         H  0.30826835  0.20579071  0.21627390     0.08800
H17         H  0.28910256  0.26119265  0.17588213     0.07900
N18         N  0.24817701  0.21602607  0.27655230    -0.36000
N19         N  0.23062479  0.22810656  0.28187010    -0.28100
C20         C  0.21947650  0.21805786  0.29849817    -0.03400
C21         C  0.23047888  0.19861901  0.30380308     0.05200
C22         C  0.24861525  0.19785082  0.28960353     0.03300
H23         H  0.20387672  0.22387103  0.30532300     0.08400
H24         H  0.26069078  0.18461193  0.28817301     0.07300
N25         N  0.06233138  0.33568029  0.18033093    -0.27100
N26         N  0.07152919  0.32619632  0.19794257    -0.35000
C27         C  0.05655199  0.31296602  0.20798424     0.01200
C28         C  0.03688278  0.31392384  0.19618999     0.07200
C29         C  0.04114126  0.32837386  0.17862299    -0.05900
H30         H  0.06006281  0.30264594  0.22232164     0.07900
H31         H  0.02973053  0.33311336  0.16554057     0.09100
Cu32       Cu  0.10460925  0.32892826  0.20669171     0.44200
Cu33       Cu  0.07963534  0.35780919  0.15950378     0.42000
Cu34       Cu  0.13922551  0.36161585  0.17203636     0.43900
N35         N  0.13882760  0.32867416  0.20915455    -0.34500
N36         N  0.15184651  0.34025175  0.19572722    -0.28800
C37         C  0.17314407  0.33450406  0.19938799    -0.04900
C38         C  0.17342188  0.31865193  0.21607952     0.07300
C39         C  0.15141300  0.31540146  0.22193753     0.01100
H40         H  0.18723320  0.34083747  0.19009759     0.08800
H41         H  0.14490841  0.30334418  0.23365723     0.07900
N42         N  0.12323748  0.38074386  0.14844527    -0.36000
N43         N  0.10190184  0.37929366  0.14320895    -0.28100
C44         C  0.09757718  0.39422510  0.12698274    -0.03400
C45         C  0.11710314  0.40562593  0.12203727     0.05200
C46         C  0.13291119  0.39661684  0.13602801     0.03300
H47         H  0.08130653  0.39707552  0.11986740     0.08400
H48         H  0.15027105  0.40128383  0.13716338     0.07300
N49         N  0.19353810  0.07078290  0.34618587    -0.27100
N50         N  0.21109391  0.08006525  0.33674426    -0.35000
C51         C  0.22184810  0.06476984  0.32454509     0.01200
C52         C  0.21069473  0.04461917  0.32640771     0.07200
C53         C  0.19271363  0.04917068  0.34026775    -0.05900
H54         H  0.23594251  0.06856193  0.31400536     0.07900
H55         H  0.17964861  0.03779752  0.34524241     0.09100
Cu56       Cu  0.21786579  0.11373586  0.33802220     0.44200
Cu57       Cu  0.17098701  0.08900300  0.36511139     0.42000
Cu58       Cu  0.17658116  0.14971771  0.36255475     0.43900
N59         N  0.21752724  0.14780055  0.33378448    -0.34500
N60         N  0.20188648  0.16098799  0.34180561    -0.28800
C61         C  0.20460433  0.18146844  0.33311391    -0.04900
C62         C  0.22286344  0.18103512  0.31903626     0.07300
C63         C  0.23068905  0.15948376  0.31996668     0.01100
H64         H  0.19355440  0.19533759  0.33608345     0.08800
H65         H  0.24401546  0.15239133  0.31017186     0.07900
N66         N  0.15384143  0.13307376  0.38268521    -0.36000
N67         N  0.15169371  0.11116906  0.38341280    -0.28100
C68         C  0.13580706  0.10586460  0.39829829    -0.03400
C69         C  0.12749081  0.12532834  0.40743198     0.05200
C70         C  0.13944760  0.14223076  0.39718448     0.03300
H71         H  0.13122589  0.08899413  0.40260278     0.08400
H72         H  0.13783164  0.15992770  0.40005364     0.07300
N73         N  0.34022607  0.19014331  0.06136297    -0.27100
N74         N  0.33236868  0.20856137  0.07044236    -0.35000
C75         C  0.31997824  0.21941205  0.05538998     0.01200
C76         C  0.31975252  0.20716350  0.03593205     0.07200
C77         C  0.33279874  0.18869005  0.04026847    -0.05900
H78         H  0.31077317  0.23448608  0.05878541     0.07900
H79         H  0.33639838  0.17504829  0.02909541     0.09100
Cu80       Cu  0.33524272  0.21660890  0.10371608     0.44200
Cu81       Cu  0.35958340  0.16733400  0.07857311     0.42000
Cu82       Cu  0.35714273  0.17367988  0.13864506     0.43900
N83         N  0.33215422  0.21689172  0.13794029    -0.34500
N84         N  0.33952785  0.20069314  0.15082884    -0.28800
C85         C  0.33214572  0.20402921  0.17171808    -0.04900
C86         C  0.31944899  0.22320977  0.17188500     0.07300
C87         C  0.31990601  0.23098233  0.15021631     0.01100
H88         H  0.33483798  0.19269339  0.18544859     0.08800
H89         H  0.31076804  0.24494574  0.14351442     0.07900
N90         N  0.37562599  0.14940983  0.12256434    -0.36000
N91         N  0.37722498  0.14751286  0.10067504    -0.28100
C92         C  0.39181938  0.13125447  0.09582433    -0.03400
C93         C  0.39956205  0.12236643  0.11564230     0.05200
C94         C  0.38885993  0.13422315  0.13220647     0.03300
H95         H  0.39642583  0.12630494  0.07912460     0.08400
H96         H  0.39114484  0.13248869  0.14999690     0.07300
N97         N  0.84443224  0.15171918  0.28944750    -0.27100
N98         N  0.83285432  0.13505525  0.28091421    -0.35000
C99         C  0.81953059  0.12647753  0.29669534     0.01200
C100        C  0.82268266  0.13824073  0.31627415     0.07200
C101        C  0.83872901  0.15411124  0.31105262    -0.05900
H102        H  0.80758413  0.11331176  0.29374944     0.07900
H103        H  0.84468257  0.16738820  0.32166611     0.09100
Cu104      Cu  0.83221612  0.12690139  0.24745159     0.44200
Cu105      Cu  0.86505406  0.17202852  0.27011982     0.42000
Cu106      Cu  0.85703511  0.16623376  0.20998039     0.43900
N107        N  0.82808645  0.12547658  0.21328512    -0.34500
N108        N  0.83663402  0.14037167  0.19950376    -0.28800
C109        C  0.82911008  0.13629123  0.17880600    -0.04900
C110        C  0.81516137  0.11793898  0.17965306     0.07300
C111        C  0.81494246  0.11147545  0.20175932     0.01100
H112        H  0.83292332  0.14640179  0.16437973     0.08800
H113        H  0.80508113  0.09831184  0.20914274     0.07900
N114        N  0.87870049  0.18891514  0.22451531    -0.36000
N115        N  0.88230385  0.19052402  0.24620054    -0.28100
C116        C  0.89869092  0.20545980  0.24968272    -0.03400
C117        C  0.90549572  0.21384573  0.22925763     0.05200
C118        C  0.89243410  0.20295523  0.21371413     0.03300
H119        H  0.90530292  0.20975921  0.26587953     0.08400
H120        H  0.89350764  0.20436418  0.19577868     0.07300
N121        N  0.77500994  0.09058171  0.14341588    -0.27100
N122        N  0.78138377  0.10735589  0.13062674    -0.35000
C123        C  0.79749650  0.11885523  0.14106686     0.01200
C124        C  0.80131165  0.10902626  0.16151267     0.07200
C125        C  0.78683734  0.09108791  0.16243817    -0.05900
H126        H  0.80474325  0.13415204  0.13487354     0.07900
H127        H  0.78416826  0.08000600  0.17639826     0.09100
Cu128      Cu  0.76531160  0.11677371  0.10164119     0.44200
Cu129      Cu  0.74816026  0.07002850  0.13603789     0.42000
Cu130      Cu  0.71420998  0.08875109  0.08935075     0.43900
N131        N  0.74403302  0.12674437  0.07644436    -0.34500
N132        N  0.72527508  0.11627703  0.07167846    -0.28800
C133        C  0.71450123  0.12759504  0.05564055    -0.04900
C134        C  0.72701021  0.14620935  0.05027176     0.07300
C135        C  0.74559715  0.14514795  0.06379223     0.01100
H136        H  0.69822492  0.12325548  0.04927848     0.08800
H137        H  0.75888803  0.15726710  0.06494782     0.07900
N138        N  0.70532603  0.06312891  0.11071203    -0.36000
N139        N  0.71773036  0.05600320  0.12743605    -0.28100
C140        C  0.70624542  0.04053883  0.13892264    -0.03400
C141        C  0.68560606  0.03797977  0.12902766     0.05200
C142        C  0.68563915  0.05248656  0.11117404     0.03300
H143        H  0.71200555  0.03274544  0.15409880     0.08400
H144        H  0.67198507  0.05588702  0.09996402     0.07300
N145        N  0.69093646  0.27550265  0.01314955    -0.27100
N146        N  0.70865237  0.26676115  0.02276992    -0.35000
C147        C  0.71832463  0.28223544  0.03578884     0.01200
C148        C  0.70596057  0.30161585  0.03458409     0.07200
C149        C  0.68870082  0.29671745  0.02005497    -0.05900
H150        H  0.73269488  0.27927789  0.04620763     0.07900
H151        H  0.67542420  0.30770973  0.01495951     0.09100
Cu152      Cu  0.71679851  0.23328654  0.02030830     0.44200
Cu153      Cu  0.67055276  0.25768997  0.99139967     0.42000
Cu154      Cu  0.67845896  0.19784050  0.98943112     0.43900
N155        N  0.71642393  0.19880431  0.02234888    -0.34500
N156        N  0.70179370  0.18593297  0.01205798    -0.28800
C157        C  0.70380627  0.16499401  0.01980202    -0.04900
C158        C  0.72060317  0.16470548  0.03555603     0.07300
C159        C  0.72829995  0.18636948  0.03663825     0.01100
H160        H  0.69328039  0.15120496  0.01491701     0.08800
H161        H  0.74055417  0.19294122  0.04808839     0.07900
N162        N  0.65663930  0.21489705  0.96866196    -0.36000
N163        N  0.65366027  0.23666992  0.96952267    -0.28100
C164        C  0.63873608  0.24253726  0.95390491    -0.03400
C165        C  0.63199826  0.22360965  0.94247855     0.05200
C166        C  0.64370147  0.20637244  0.95245224     0.03300
H167        H  0.63350818  0.25946902  0.95082159     0.08400
H168        H  0.64277328  0.18884446  0.94849942     0.07300
N169        N  0.55510255  0.00500918  0.17136191    -0.27100
N170        N  0.56400974  0.01329899  0.15297220    -0.35000
C171        C  0.54830197  0.02442844  0.14163899     0.01200
C172        C  0.52857809  0.02334965  0.15349698     0.07200
C173        C  0.53351107  0.01085164  0.17225771    -0.05900
H174        H  0.55128046  0.03348698  0.12634061     0.07900
H175        H  0.52232242  0.00637574  0.18565340     0.09100
Cu176      Cu  0.59758267  0.01184589  0.14497952     0.44200
Cu177      Cu  0.57274832  0.98678025  0.19490474     0.42000
Cu178      Cu  0.63235063  0.98787701  0.18654608     0.43900
N179        N  0.63202740  0.01407297  0.14415031    -0.34500
N180        N  0.64477796  0.00571024  0.15996093    -0.28800
C181        C  0.66594483  0.01207686  0.15647660    -0.04900
C182        C  0.66655065  0.02512701  0.13752745     0.07300
C183        C  0.64477475  0.02597432  0.13006690     0.01100
H184        H  0.67965188  0.00830994  0.16750465     0.08800
H185        H  0.63844533  0.03560537  0.11624073     0.07900
N186        N  0.61686516  0.97000652  0.21144918    -0.36000
N187        N  0.59514873  0.96959080  0.21488543    -0.28100
C188        C  0.59079001  0.95590168  0.23212749    -0.03400
C189        C  0.61077247  0.94728649  0.23975071     0.05200
C190        C  0.62687636  0.95656491  0.22617210     0.03300
H191        H  0.57426950  0.95190924  0.23809453     0.08400
H192        H  0.64461125  0.95360502  0.22676681     0.07300
N193        N  0.14091675  0.29472065  0.85621403    -0.27100
N194        N  0.12539282  0.28392475  0.84496369    -0.35000
C195        C  0.11419842  0.29839034  0.83221069     0.01200
C196        C  0.12309396  0.31942781  0.83533552     0.07200
C197        C  0.13996337  0.31646499  0.85083560    -0.05900
H198        H  0.10162499  0.29358041  0.82025404     0.07900
H199        H  0.15198072  0.32875548  0.85623135     0.09100
Cu200      Cu  0.12318214  0.24970787  0.84261224     0.44200
Cu201      Cu  0.16501199  0.27858841  0.87504723     0.42000
Cu202      Cu  0.17057134  0.21966503  0.86115030     0.43900
N203        N  0.12828694  0.21657509  0.83514117    -0.34500
N204        N  0.14635260  0.20572385  0.84124399    -0.28800
C205        C  0.14614740  0.18539132  0.83196254    -0.04900
C206        C  0.12697918  0.18340399  0.81941402     0.07300
C207        C  0.11599512  0.20343839  0.82183144     0.01100
H208        H  0.15929658  0.17325931  0.83370585     0.08800
H209        H  0.10083154  0.20854291  0.81361946     0.07900
N210        N  0.18994433  0.23605182  0.88426172    -0.36000
N211        N  0.18773970  0.25719662  0.88990465    -0.28100
C212        C  0.20215300  0.26182930  0.90642772    -0.03400
C213        C  0.21395744  0.24263788  0.91135322     0.05200
C214        C  0.20576533  0.22672034  0.89688686     0.03300
H215        H  0.20393097  0.27801188  0.91410329     0.08400
H216        H  0.21045307  0.20937136  0.89601824     0.07300
N217        N  0.06761551  0.12414170  0.72470924    -0.27100
N218        N  0.07552987  0.10806512  0.71193647    -0.35000
C219        C  0.06391389  0.10749839  0.69284609     0.01200
C220        C  0.04797219  0.12400097  0.69361717     0.07200
C221        C  0.05067878  0.13416214  0.71409439    -0.05900
H222        H  0.06763875  0.09665763  0.67896012     0.07900
H223        H  0.04201785  0.14868980  0.72021697     0.09100
Cu224      Cu  0.10367823  0.08953723  0.71904433     0.44200
Cu225      Cu  0.08253798  0.13448150  0.75398505     0.42000
Cu226      Cu  0.13683044  0.10993794  0.76384045     0.43900
N227        N  0.13419285  0.07592516  0.72740358    -0.34500
N228        N  0.14664819  0.08384222  0.74370791    -0.28800
C229        C  0.16598130  0.07266106  0.74424751    -0.04900
C230        C  0.16562886  0.05687515  0.72749497     0.07300
C231        C  0.14521208  0.05937239  0.71715716     0.01100
H232        H  0.17942780  0.07607829  0.75572336     0.08800
H233        H  0.13909734  0.05035022  0.70281289     0.07900
N234        N  0.12393541  0.13607138  0.78208577    -0.36000
N235        N  0.10415141  0.14499736  0.77865176    -0.28100
C236        C  0.10179164  0.16275965  0.79205580    -0.03400
C237        C  0.12100135  0.16501237  0.80450446     0.05200
C238        C  0.13462305  0.14778215  0.79785173     0.03300
H239        H  0.08757288  0.17375813  0.79199004     0.08400
H240        H  0.15149959  0.14462516  0.80321036     0.07300
N241        N  0.29408885  0.00700638  0.69566054    -0.27100
N242        N  0.28526857  0.01953130  0.71144055    -0.35000
C243        C  0.30131866  0.03205697  0.72068924     0.01200
C244        C  0.32136922  0.02729750  0.71032507     0.07200
C245        C  0.31606167  0.01129876  0.69448659    -0.05900
H246        H  0.29816713  0.04495193  0.73283542     0.07900
H247        H  0.32711953  0.00405109  0.68227549     0.09100
Cu248      Cu  0.25143181  0.02239406  0.71741367     0.44200
Cu249      Cu  0.27527875  0.98700830  0.67450060     0.42000
Cu250      Cu  0.21544418  0.99578904  0.67805194     0.43900
N251        N  0.21735281  0.02746318  0.71667266    -0.34500
N252        N  0.20414826  0.01790582  0.70189782    -0.28800
C253        C  0.18352969  0.02626565  0.70402725    -0.04900
C254        C  0.18380627  0.04189582  0.72092816     0.07300
C255        C  0.20548824  0.04216319  0.72865442     0.01100
H256        H  0.16963565  0.02195541  0.69341667     0.08800
H257        H  0.21241615  0.05305397  0.74122309     0.07900
N258        N  0.23042855  0.97459567  0.65542853    -0.36000
N259        N  0.25207864  0.97086008  0.65442775    -0.28100
C260        C  0.25597075  0.95526330  0.63881991    -0.03400
C261        C  0.23579862  0.94900464  0.62951228     0.05200
C262        C  0.22003073  0.96172260  0.64036254     0.03300
H263        H  0.27227180  0.94891212  0.63466241     0.08400
H264        H  0.20218860  0.96104758  0.63809147     0.07300
N265        N  0.00182629  0.15705945  0.56390248    -0.27100
N266        N  0.01435903  0.14162253  0.57322578    -0.35000
C267        C  0.02693473  0.13190520  0.55753482     0.01200
C268        C  0.02217249  0.14154425  0.53713868     0.07200
C269        C  0.00613917  0.15749336  0.54188334    -0.05900
H270        H  0.03975761  0.11986196  0.56113939     0.07900
H271        H  0.99881420  0.16920925  0.53036317     0.09100
Cu272      Cu  0.01670434  0.13629997  0.60710803     0.44200
Cu273      Cu  0.98145788  0.17837776  0.58219987     0.42000
Cu274      Cu  0.98810480  0.17408763  0.64269073     0.43900
N275        N  0.02064170  0.13654261  0.64124429    -0.34500
N276        N  0.01057627  0.15091812  0.65445490    -0.28800
C277        C  0.01814960  0.14823933  0.67536179    -0.04900
C278        C  0.03368672  0.13129304  0.67519441     0.07300
C279        C  0.03480395  0.12422753  0.65332073     0.01100
H280        H  0.01321698  0.15833029  0.68943747     0.08800
H281        H  0.04583969  0.11179790  0.64645529     0.07900
N282        N  0.96594413  0.19523423  0.62710468    -0.36000
N283        N  0.96363316  0.19722833  0.60527960    -0.28100
C284        C  0.94769118  0.21238211  0.60111548    -0.03400
C285        C  0.93952574  0.22010242  0.62129355     0.05200
C286        C  0.95145012  0.20878378  0.63734651     0.03300
H287        H  0.94199883  0.21689061  0.58463638     0.08400
H288        H  0.94970770  0.21023554  0.65522667     0.07300
N289        N  0.35650800  0.65357260  0.78583676    -0.27100
N290        N  0.34284267  0.63922037  0.77630175    -0.35000
C291        C  0.32950204  0.63023063  0.79178292     0.01200
C292        C  0.33490603  0.63924770  0.81225418     0.07200
C293        C  0.35224143  0.65396924  0.80789611    -0.05900
H294        H  0.31623390  0.61857604  0.78819038     0.07900
H295        H  0.36018727  0.66513835  0.81958187     0.09100
Cu296      Cu  0.34028648  0.63451601  0.74249144     0.44200
Cu297      Cu  0.37786109  0.67364766  0.76720817     0.42000
Cu298      Cu  0.36642098  0.67415775  0.70667802     0.43900
N299        N  0.33516410  0.63517794  0.70866153    -0.34500
N300        N  0.34400323  0.65026872  0.69529705    -0.28800
C301        C  0.33546433  0.64754173  0.67473714    -0.04900
C302        C  0.32063970  0.62983560  0.67537021     0.07300
C303        C  0.32094747  0.62238401  0.69710667     0.01100
H304        H  0.33923834  0.65807118  0.66060346     0.08800
H305        H  0.31072274  0.60940608  0.70432474     0.07900
N306        N  0.39007539  0.69403441  0.72247527    -0.36000
N307        N  0.39472142  0.69329223  0.74402005    -0.28100
C308        C  0.41176777  0.70724047  0.74822405    -0.03400
C309        C  0.41802745  0.71746727  0.72848921     0.05200
C310        C  0.40389811  0.70863776  0.71253367     0.03300
H311        H  0.41906509  0.70976032  0.76449935     0.08400
H312        H  0.40414859  0.71192955  0.69482052     0.07300
N313        N  0.22552755  0.63084810  0.57114782    -0.27100
N314        N  0.24349437  0.64245434  0.57633597    -0.35000
C315        C  0.24349193  0.66161450  0.56476645     0.01200
C316        C  0.22467179  0.66201382  0.55156795     0.07200
C317        C  0.21371640  0.64220180  0.55591831    -0.05900
H318        H  0.25578711  0.67466983  0.56656619     0.07900
H319        H  0.19767221  0.63704733  0.54956986     0.09100
Cu320      Cu  0.26573109  0.63292996  0.60077393     0.44200
Cu321      Cu  0.21624783  0.60194382  0.58763144     0.42000
Cu322      Cu  0.25075820  0.58451494  0.63394732     0.43900
N323        N  0.28341538  0.62241546  0.62833499    -0.34500
N324        N  0.27781181  0.60499527  0.64060458    -0.28800
C325        C  0.29096147  0.60437406  0.65869001    -0.04900
C326        C  0.30551558  0.62223188  0.65770679     0.07300
C327        C  0.30035675  0.63323998  0.63819385     0.01100
H328        H  0.28926121  0.59246032  0.67210223     0.08800
H329        H  0.30737061  0.64876855  0.63231741     0.07900
N330        N  0.22087363  0.56929117  0.62563951    -0.36000
N331        N  0.20831614  0.57581591  0.60879508    -0.28100
C332        C  0.18926636  0.56407603  0.60894838    -0.03400
C333        C  0.18981992  0.54946470  0.62673179     0.05200
C334        C  0.21013079  0.55314529  0.63693291     0.03300
H335        H  0.17567229  0.56663225  0.59744195     0.08400
H336        H  0.21624564  0.54539256  0.65198889     0.07300
N337        N  0.18273223  0.79125233  0.51238749    -0.27100
N338        N  0.20030844  0.78279466  0.52256172    -0.35000
C339        C  0.21063305  0.79897290  0.53405138     0.01200
C340        C  0.19891971  0.81853080  0.53129476     0.07200
C341        C  0.18128678  0.81305416  0.51746402    -0.05900
H342        H  0.22505166  0.79644455  0.54451816     0.07900
H343        H  0.16827476  0.82402260  0.51167233     0.09100
Cu344      Cu  0.20838781  0.74926455  0.52322694     0.44200
Cu345      Cu  0.16125524  0.77254359  0.49253548     0.42000
Cu346      Cu  0.17030537  0.71288895  0.49588948     0.43900
N347        N  0.20976793  0.71491999  0.52627670    -0.34500
N348        N  0.19514217  0.70156234  0.51670778    -0.28800
C349        C  0.19866152  0.68058969  0.52362022    -0.04900
C350        C  0.21645546  0.68075066  0.53818084     0.07300
C351        C  0.22316771  0.70276947  0.53943538     0.01100
H352        H  0.18856973  0.66642003  0.51891381     0.08800
H353        H  0.23601028  0.70962844  0.55004015     0.07900
N354        N  0.14724334  0.72755267  0.47510552    -0.36000
N355        N  0.14370050  0.74921010  0.47375589    -0.28100
C356        C  0.12802747  0.75292312  0.45818182    -0.03400
C357        C  0.12157335  0.73262289  0.44919756     0.05200
C358        C  0.13406095  0.71694991  0.46049656     0.03300
H359        H  0.12221887  0.76924155  0.45332460     0.08400
H360        H  0.13366062  0.69908366  0.45840204     0.07300
N361        N  0.06023437  0.50645915  0.65778795    -0.27100
N362        N  0.07029014  0.51513731  0.64025238    -0.35000
C363        C  0.05569558  0.52751640  0.62878310     0.01200
C364        C  0.03533567  0.52686479  0.63964739     0.07200
C365        C  0.03889980  0.51319488  0.65798128    -0.05900
H366        H  0.06010695  0.53746902  0.61442704     0.07900
H367        H  0.02746272  0.50981508  0.67147754     0.09100
Cu368      Cu  0.10432165  0.51448251  0.63555448     0.44200
Cu369      Cu  0.07712365  0.48844015  0.68196216     0.42000
Cu370      Cu  0.13798295  0.49179611  0.67934371     0.43900
N371        N  0.13814104  0.52010366  0.63819285    -0.34500
N372        N  0.15055270  0.51245117  0.65464052    -0.28800
C373        C  0.17114880  0.52114621  0.65281590    -0.04900
C374        C  0.17159459  0.53492586  0.63432173     0.07300
C375        C  0.15041509  0.53381436  0.62546374     0.01100
H376        H  0.18453790  0.51820867  0.66447267     0.08800
H377        H  0.14405248  0.54306431  0.61139438     0.07900
N378        N  0.12044734  0.47148949  0.70115563    -0.36000
N379        N  0.09848798  0.47058096  0.70241721    -0.28100
C380        C  0.09267443  0.45561337  0.71804815    -0.03400
C381        C  0.11185514  0.44647063  0.72686898     0.05200
C382        C  0.12914279  0.45698385  0.71578927     0.03300
H383        H  0.07570317  0.45123264  0.72220951     0.08400
H384        H  0.14677701  0.45437942  0.71817852     0.07300
N385        N  0.75123371  0.38944731  0.70114450    -0.27100
N386        N  0.72928421  0.38927621  0.69957544    -0.35000
C387        C  0.72084806  0.40294789  0.71511221     0.01200
C388        C  0.73823908  0.41212419  0.72717193     0.07200
C389        C  0.75728999  0.40317436  0.71778852    -0.05900
H390        H  0.70327239  0.40605804  0.71734966     0.07900
H391        H  0.77435324  0.40683780  0.72218329     0.09100
Cu392      Cu  0.71116340  0.37122487  0.67621083     0.44200
Cu393      Cu  0.77218736  0.37139726  0.68055319     0.42000
Cu394      Cu  0.74398817  0.34401827  0.63506983     0.43900
N395        N  0.69734334  0.35247894  0.65056776    -0.34500
N396        N  0.70966829  0.34339679  0.63479396    -0.28800
C397        C  0.69666871  0.33106002  0.62141809    -0.04900
C398        C  0.67508437  0.33217590  0.62924858     0.07300
C399        C  0.67606366  0.34597170  0.64773848     0.01100
H400        H  0.70279070  0.32070966  0.60801984     0.08800
H401        H  0.66256520  0.35006963  0.65892744     0.07900
N402        N  0.77717438  0.33932344  0.64252860    -0.36000
N403        N  0.78767641  0.34934587  0.65906256    -0.28100
C404        C  0.80829436  0.34085688  0.66076041    -0.03400
C405        C  0.81069466  0.32443185  0.64476233     0.05200
C406        C  0.79067372  0.32405606  0.63342473     0.03300
H407        H  0.82015274  0.34534545  0.67355138     0.08400
H408        H  0.78592745  0.31306238  0.61997706     0.07300
N409        N  0.62491341  0.29908051  0.62129788    -0.27100
N410        N  0.63654261  0.29301665  0.60362247    -0.35000
C411        C  0.65571679  0.30459302  0.60324378     0.01200
C412        C  0.65614862  0.31862333  0.62153427     0.07200
C413        C  0.63631024  0.31474909  0.63257252    -0.05900
H414        H  0.66881849  0.30218697  0.59112393     0.07900
H415        H  0.63106813  0.32186713  0.64826779     0.09100
Cu416      Cu  0.62716639  0.26724486  0.58247955     0.44200
Cu417      Cu  0.59541423  0.28386495  0.63065304     0.42000
Cu418      Cu  0.57734651  0.23653516  0.59801043     0.43900
N419        N  0.61714872  0.23779718  0.56727768    -0.34500
N420        N  0.59937004  0.22631552  0.57343590    -0.28800
C421        C  0.59927260  0.20667066  0.56270087    -0.04900
C422        C  0.61776224  0.20580746  0.54900655     0.07300
C423        C  0.62865344  0.22586311  0.55221273     0.01100
H424        H  0.58713067  0.19361854  0.56538946     0.08800
H425        H  0.64453862  0.23079089  0.54527962     0.07900
N426        N  0.56041497  0.24814315  0.62578815    -0.36000
N427        N  0.56740314  0.26511957  0.63794203    -0.28100
C428        C  0.55470341  0.26668292  0.65629771    -0.03400
C429        C  0.53889568  0.24995889  0.65564467     0.05200
C430        C  0.54290143  0.23857841  0.63601376     0.03300
H431        H  0.55755402  0.27839657  0.66968300     0.08400
H432        H  0.53479553  0.22349383  0.63040326     0.07300
N433        N  0.50537501  0.20346937  0.78298090    -0.27100
N434        N  0.51631249  0.22081196  0.77504044    -0.35000
C435        C  0.53029341  0.22843298  0.79077068     0.01200
C436        C  0.52816372  0.21529677  0.80974474     0.07200
C437        C  0.51196558  0.19969894  0.80404917    -0.05900
H438        H  0.54180587  0.24203631  0.78813917     0.07900
H439        H  0.50542437  0.18632911  0.81413744     0.09100
Cu440      Cu  0.51328660  0.23183622  0.74244286     0.44200
Cu441      Cu  0.48364575  0.18440103  0.76397395     0.42000
Cu442      Cu  0.48088552  0.19688157  0.70502649     0.43900
N443        N  0.51268804  0.23565108  0.70813118    -0.34500
N444        N  0.50150360  0.22248885  0.69446192    -0.28800
C445        C  0.50804878  0.22658884  0.67342057    -0.04900
C446        C  0.52405928  0.24314565  0.67390019     0.07300
C447        C  0.52642745  0.24864156  0.69613243     0.01100
H448        H  0.50270481  0.21711296  0.65905940     0.08800
H449        H  0.53873072  0.25970996  0.70325948     0.07900
N450        N  0.46427429  0.17039868  0.71971194    -0.36000
N451        N  0.46523665  0.16594277  0.74123511    -0.28100
C452        C  0.45309106  0.14760745  0.74544477    -0.03400
C453        C  0.44412648  0.13990152  0.72556744     0.05200
C454        C  0.45154046  0.15495802  0.70964160     0.03300
H455        H  0.45075462  0.14076770  0.76192881     0.08400
H456        H  0.44817799  0.15463086  0.69194803     0.07300
N457        N  0.65594256  0.07386355  0.51328330    -0.27100
N458        N  0.64031069  0.08342513  0.52543255    -0.35000
C459        C  0.63073198  0.06803833  0.53858214     0.01200
C460        C  0.64080782  0.04770912  0.53464586     0.07200
C461        C  0.65659631  0.05202814  0.51832210    -0.05900
H462        H  0.61769263  0.07159976  0.55046694     0.07900
H463        H  0.66845032  0.04038465  0.51143523     0.09100
Cu464      Cu  0.63390447  0.11729519  0.52543003     0.44200
Cu465      Cu  0.67685863  0.09159698  0.49200749     0.42000
Cu466      Cu  0.66976233  0.15218309  0.49281048     0.43900
N467        N  0.63249512  0.15173960  0.52618053    -0.34500
N468        N  0.64614969  0.16467003  0.51471482    -0.28800
C469        C  0.64260896  0.18600484  0.52054538    -0.04900
C470        C  0.62578982  0.18646842  0.53630495     0.07300
C471        C  0.61971683  0.16446908  0.53940717     0.01100
H472        H  0.65198635  0.20004644  0.51422607     0.08800
H473        H  0.60771600  0.15806934  0.55124145     0.07900
N474        N  0.69235559  0.13553501  0.47266446    -0.36000
N475        N  0.69525534  0.11371661  0.47257766    -0.28100
C476        C  0.71120741  0.10864158  0.45767576    -0.03400
C477        C  0.71852636  0.12814855  0.44771586     0.05200
C478        C  0.70622076  0.14484486  0.45772793     0.03300
H479        H  0.71665351  0.09190649  0.45394167     0.08400
H480        H  0.70730310  0.16253119  0.45454984     0.07300
N481        N  0.85101686  0.70546555  0.57112316    -0.27100
N482        N  0.84056421  0.72249260  0.58029864    -0.35000
C483        C  0.82619064  0.73101476  0.56545770     0.01200
C484        C  0.82779027  0.71895543  0.54588342     0.07200
C485        C  0.84377386  0.70292633  0.55005555    -0.05900
H486        H  0.81479579  0.74447768  0.56895788     0.07900
H487        H  0.84867984  0.68948343  0.53913858     0.09100
Cu488      Cu  0.84402227  0.73180892  0.61336528     0.44200
Cu489      Cu  0.87195408  0.68439558  0.58875849     0.42000
Cu490      Cu  0.87390286  0.69352191  0.64845008     0.43900
N491        N  0.84536250  0.73456573  0.64773762    -0.34500
N492        N  0.85576050  0.72009732  0.66060704    -0.28800
C493        C  0.85037446  0.72406219  0.68197031    -0.04900
C494        C  0.83590944  0.74189832  0.68256733     0.07300
C495        C  0.83323751  0.74827346  0.66059321     0.01100
H496        H  0.85537765  0.71373380  0.69584343     0.08800
H497        H  0.82173296  0.76055021  0.65425202     0.07900
N498        N  0.89041043  0.66790532  0.63245251    -0.36000
N499        N  0.88978250  0.66452746  0.61070925    -0.28100
C500        C  0.90287127  0.64710530  0.60569808    -0.03400
C501        C  0.91240295  0.63927159  0.62519410     0.05200
C502        C  0.90393094  0.65280548  0.64183543     0.03300
H503        H  0.90587697  0.64112636  0.58897098     0.08400
H504        H  0.90742297  0.65197787  0.65948113     0.07300
N505        N  0.80102507  0.74678124  0.73157976    -0.27100
N506        N  0.79539800  0.76511300  0.72081794    -0.35000
C507        C  0.80797934  0.76697787  0.70237835     0.01200
C508        C  0.82228981  0.74902031  0.70159275     0.07200
C509        C  0.81754338  0.73664670  0.72044027    -0.05900
H510        H  0.80582742  0.77965310  0.68976599     0.07900
H511        H  0.82421534  0.72050206  0.72472763     0.09100
Cu512      Cu  0.76854736  0.78470408  0.72961512     0.44200
Cu513      Cu  0.78321314  0.73398680  0.75825515     0.42000
Cu514      Cu  0.73402297  0.76402442  0.77483509     0.43900
N515        N  0.73823578  0.79837821  0.73837289    -0.34500
N516        N  0.72549633  0.79064799  0.75460847    -0.28800
C517        C  0.70566885  0.80091222  0.75378350    -0.04900
C518        C  0.70598345  0.81580033  0.73621069     0.07300
C519        C  0.72692286  0.81386518  0.72690000     0.01100
H520        H  0.69163772  0.79681251  0.76432365     0.08800
H521        H  0.73292307  0.82184600  0.71188895     0.07900
N522        N  0.74360758  0.73409374  0.78904849    -0.36000
N523        N  0.76126089  0.72278918  0.78244946    -0.28100
C524        C  0.76149032  0.70296744  0.79284724    -0.03400
C525        C  0.74320353  0.70182429  0.80678168     0.05200
C526        C  0.73227698  0.72187446  0.80405355     0.03300
H527        H  0.77370528  0.69009858  0.78995020     0.08400
H528        H  0.71661408  0.72673328  0.81146562     0.07300
N529        N  0.57702380  0.83873007  0.68618020    -0.27100
N530        N  0.58542147  0.83088535  0.70492628    -0.35000
C531        C  0.57008495  0.81816911  0.71514646     0.01200
C532        C  0.55100821  0.81787341  0.70223762     0.07200
C533        C  0.55607746  0.83103030  0.68390246    -0.05900
H534        H  0.57306008  0.80892653  0.73031159     0.07900
H535        H  0.54542539  0.83454541  0.66982576     0.09100
Cu536      Cu  0.61818751  0.83542323  0.71446745     0.44200
Cu537      Cu  0.59512221  0.85898707  0.66458910     0.42000
Cu538      Cu  0.65438276  0.86488983  0.67644370     0.43900
N539        N  0.65242947  0.83653974  0.71772851    -0.34500
N540        N  0.66576201  0.84683717  0.70353152    -0.28800
C541        C  0.68697898  0.84198634  0.70864441    -0.04900
C542        C  0.68694073  0.82793691  0.72690555     0.07300
C543        C  0.66477700  0.82492089  0.73228666     0.01100
H544        H  0.70126654  0.84736078  0.69906253     0.08800
H545        H  0.65803255  0.81392380  0.74488010     0.07900
N546        N  0.63804709  0.88189460  0.65127903    -0.36000
N547        N  0.61655639  0.87990026  0.64707154    -0.28100
C548        C  0.61094708  0.89457394  0.63112816    -0.03400
C549        C  0.62981260  0.90641341  0.62486253     0.05200
C550        C  0.64666723  0.89779113  0.63805909     0.03300
H551        H  0.59406943  0.89721276  0.62555954     0.08400
H552        H  0.66385185  0.90313808  0.63861002     0.07300
N553        N  0.70791522  0.57043005  0.84841995    -0.27100
N554        N  0.72356567  0.57941163  0.83580316    -0.35000
C555        C  0.73358306  0.56324566  0.82406370     0.01200
C556        C  0.72392848  0.54296479  0.82960598     0.07200
C557        C  0.70767318  0.54830301  0.84513328    -0.05900
H558        H  0.74605437  0.56638380  0.81146670     0.07900
H559        H  0.69596899  0.53708188  0.85299845     0.09100
Cu560      Cu  0.72944452  0.61338651  0.83321802     0.44200
Cu561      Cu  0.68608398  0.58865297  0.86791724     0.42000
Cu562      Cu  0.69286486  0.64852291  0.86446522     0.43900
N563        N  0.72997634  0.64786332  0.83102181    -0.34500
N564        N  0.71605385  0.66073207  0.84213068    -0.28800
C565        C  0.71895900  0.68196422  0.83564463    -0.04900
C566        C  0.73565987  0.68249130  0.81980873     0.07300
C567        C  0.74234368  0.66060830  0.81733568     0.01100
H568        H  0.70925594  0.69587378  0.84163423     0.08800
H569        H  0.75453933  0.65427503  0.80570767     0.07900
N570        N  0.66956828  0.63290079  0.88442801    -0.36000
N571        N  0.66657321  0.61112040  0.88531684    -0.28100
C572        C  0.64961779  0.60663038  0.89927061    -0.03400
C573        C  0.64167157  0.62658416  0.90760805     0.05200
C574        C  0.65481891  0.64283779  0.89793047     0.03300
H575        H  0.64391508  0.59005000  0.90340499     0.08400
H576        H  0.65360538  0.66063950  0.90031420     0.07300
N577        N  0.65238566  0.79124558  0.36035116    -0.27100
N578        N  0.63713191  0.78193254  0.34749121    -0.35000
C579        C  0.62608554  0.79796755  0.33653336     0.01200
C580        C  0.63477926  0.81843938  0.34267283     0.07200
C581        C  0.65146934  0.81347179  0.35780068    -0.05900
H582        H  0.61384183  0.79477858  0.32372703     0.07900
H583        H  0.66281020  0.82507047  0.36563992     0.09100
Cu584      Cu  0.63414889  0.74793270  0.34220661     0.44200
Cu585      Cu  0.67539648  0.77338042  0.37897496     0.42000
Cu586      Cu  0.67619175  0.71415938  0.36739184     0.43900
N587        N  0.63779083  0.71427231  0.33544548    -0.34500
N588        N  0.65371198  0.70196997  0.34424478    -0.28800
C589        C  0.65315909  0.68158413  0.33497345    -0.04900
C590        C  0.63600186  0.68103368  0.31964159     0.07300
C591        C  0.62656154  0.70201128  0.32043908     0.01100
H592        H  0.66479700  0.66838983  0.33866183     0.08800
H593        H  0.61323108  0.70826397  0.31010781     0.07900
N594        N  0.69653621  0.72949503  0.39065459    -0.36000
N595        N  0.69634541  0.75104065  0.39504366    -0.28100
C596        C  0.71117352  0.75526702  0.41131238    -0.03400
C597        C  0.72109305  0.73537925  0.41758800     0.05200
C598        C  0.71142186  0.71946503  0.40394270     0.03300
H599        H  0.71413360  0.77156448  0.41838254     0.08400
H600        H  0.71495256  0.70184705  0.40344895     0.07300
N601        N  0.64168676  0.57515127  0.22443880    -0.27100
N602        N  0.65377252  0.58101220  0.24191121    -0.35000
C603        C  0.67238752  0.56859982  0.24227556     0.01200
C604        C  0.67188420  0.55415995  0.22430366     0.07200
C605        C  0.65216391  0.55872574  0.21341924    -0.05900
H606        H  0.68546902  0.57021354  0.25453960     0.07900
H607        H  0.64624471  0.55127035  0.19812384     0.09100
Cu608      Cu  0.64504395  0.60634832  0.26398493     0.44200
Cu609      Cu  0.61279508  0.59126870  0.21455987     0.42000
Cu610      Cu  0.59498783  0.63638569  0.24933546     0.43900
N611        N  0.63312574  0.63359839  0.28184820    -0.34500
N612        N  0.61480621  0.64441107  0.27632875    -0.28800
C613        C  0.61264546  0.66237352  0.28947148    -0.04900
C614        C  0.63040274  0.66294674  0.30404781     0.07300
C615        C  0.64302504  0.64438650  0.29885657     0.01100
H616        H  0.59961313  0.67464338  0.28782762     0.08800
H617        H  0.65883440  0.63974207  0.30606426     0.07900
N618        N  0.58074059  0.62941049  0.21876607    -0.36000
N619        N  0.58740809  0.61297215  0.20577742    -0.28100
C620        C  0.57675416  0.61443206  0.18612020    -0.03400
C621        C  0.56273075  0.63267889  0.18683323     0.05200
C622        C  0.56563162  0.64171450  0.20780820     0.03300
H623        H  0.57970526  0.60357396  0.17205942     0.08400
H624        H  0.55818042  0.65676416  0.21425330     0.07300
N625        N  0.75387344  0.45839447  0.15688676    -0.27100
N626        N  0.73219175  0.46184387  0.15859861    -0.35000
C627        C  0.72137121  0.44691054  0.14584468     0.01200
C628        C  0.73685506  0.43319441  0.13570582     0.07200
C629        C  0.75730505  0.44102001  0.14312089    -0.05900
H630        H  0.70346873  0.44599797  0.14422513     0.07900
H631        H  0.77355857  0.43487571  0.13849326     0.09100
Cu632      Cu  0.71767195  0.48650539  0.17816663     0.44200
Cu633      Cu  0.77812922  0.47765269  0.17293938     0.42000
Cu634      Cu  0.75508571  0.51379710  0.21504796     0.43900
N635        N  0.70777592  0.51190470  0.19957321    -0.34500
N636        N  0.72166005  0.52140580  0.21373871    -0.28800
C637        C  0.71096596  0.53752936  0.22494802    -0.04900
C638        C  0.68925817  0.53831332  0.21742804     0.07300
C639        C  0.68779391  0.52185404  0.20130871     0.01100
H640        H  0.71866768  0.54838417  0.23709260     0.08800
H641        H  0.67338562  0.51762701  0.19137354     0.07900
N642        N  0.78868301  0.51115632  0.20870177    -0.36000
N643        N  0.79739502  0.49923315  0.19239362    -0.28100
C644        C  0.81911616  0.50468411  0.19041663    -0.03400
C645        C  0.82420212  0.52049674  0.20653129     0.05200
C646        C  0.80447694  0.52410790  0.21772319     0.03300
H647        H  0.83015401  0.49825846  0.17772506     0.08400
H648        H  0.80136303  0.53660901  0.23030540     0.07300
N649        N  0.48149498  0.71286259  0.10018394    -0.27100
N650        N  0.48472687  0.71105078  0.12191788    -0.35000
C651        C  0.47151527  0.72565700  0.13248848     0.01200
C652        C  0.45950512  0.73741100  0.11674790     0.07200
C653        C  0.46629261  0.72884923  0.09642196    -0.05900
H654        H  0.47043821  0.72729992  0.15040187     0.07900
H655        H  0.45989811  0.73313927  0.08014390     0.09100
Cu656      Cu  0.50596640  0.68830602  0.13707513     0.44200
Cu657      Cu  0.49644167  0.69247492  0.07653722     0.42000
Cu658      Cu  0.52917101  0.64803237  0.10127122     0.43900
N659        N  0.52725759  0.66353610  0.14846419    -0.34500
N660        N  0.53546983  0.64824320  0.13501151    -0.28800
C661        C  0.54896643  0.63471270  0.14659874     0.03100
C662        C  0.54931128  0.64185150  0.16848574     0.07300
C663        C  0.53536701  0.66018659  0.16909416     0.01100
H664        H  0.55828106  0.62108155  0.13945825     0.08800
H665        H  0.53165128  0.67052026  0.18336531     0.07900
N666        N  0.52570942  0.65298326  0.06748808    -0.36000
N667        N  0.51425795  0.66923137  0.05815162    -0.28100
C668        C  0.51810101  0.66897920  0.03604181    -0.03400
C669        C  0.53266533  0.65169067  0.03131260     0.05200
C670        C  0.53708554  0.64204601  0.05174988     0.03300
H671        H  0.51162493  0.68114837  0.02447739     0.08400
H672        H  0.54910478  0.62918874  0.05533926     0.07300
N673        N  0.29758252  0.85292702  0.15978445    -0.27100
N674        N  0.28829249  0.84101363  0.14379771    -0.35000
C675        C  0.30387155  0.82849579  0.13386929     0.01200
C676        C  0.32425817  0.83273598  0.14380775     0.07200
C677        C  0.31951880  0.84831963  0.16030113    -0.05900
H678        H  0.30017458  0.81640223  0.12108405     0.07900
H679        H  0.33106312  0.85550284  0.17210671     0.09100
Cu680      Cu  0.25458781  0.84028244  0.13707278     0.44200
Cu681      Cu  0.27916900  0.87355200  0.18089370     0.42000
Cu682      Cu  0.21834601  0.86894632  0.17399428     0.43900
N683        N  0.22039866  0.83701116  0.13576147    -0.34500
N684        N  0.20683772  0.84683057  0.14999238    -0.28800
C685        C  0.18605348  0.83903139  0.14674372    -0.04900
C686        C  0.18667716  0.82367059  0.12953113     0.07300
C687        C  0.20869149  0.82292678  0.12292134     0.01100
H688        H  0.17176402  0.84356375  0.15671019     0.08800
H689        H  0.21594353  0.81191713  0.11066583     0.07900
N690        N  0.23408050  0.89022078  0.19632083    -0.36000
N691        N  0.25586347  0.89179675  0.19918148    -0.28100
C692        C  0.25998302  0.90717210  0.21502046    -0.03400
C693        C  0.23985133  0.91574989  0.22237562     0.05200
C694        C  0.22387623  0.90461866  0.21004697     0.03300
H695        H  0.27645693  0.91213400  0.22031931     0.08400
H696        H  0.20603780  0.90676050  0.21101810     0.07300
N697        N  0.11813090  0.71291442  0.07342894    -0.27100
N698        N  0.13574657  0.72491836  0.06787886    -0.35000
C699        C  0.14724219  0.71403354  0.05200674     0.01200
C700        C  0.13636011  0.69419505  0.04751211     0.07200
C701        C  0.11798217  0.69407635  0.06137578    -0.05900
H702        H  0.16286657  0.71967612  0.04502400     0.07900
H703        H  0.10581396  0.68090352  0.06320213     0.09100
Cu704      Cu  0.14441086  0.75428821  0.08404196     0.44200
Cu705      Cu  0.09628624  0.72139046  0.09870172     0.42000
Cu706      Cu  0.11038340  0.77013413  0.13140418     0.43900
N707        N  0.15127781  0.78130757  0.10457724    -0.34500
N708        N  0.13878926  0.78728656  0.12169992    -0.28800
C709        C  0.14884991  0.80414644  0.13254679    -0.04900
C710        C  0.16871383  0.80883431  0.12184782     0.07300
C711        C  0.16966085  0.79409176  0.10417348     0.01100
H712        H  0.14282734  0.81145128  0.14787109     0.08800
H713        H  0.18322362  0.79204108  0.09250404     0.07900
N714        N  0.08467341  0.74840285  0.13929395    -0.36000
N715        N  0.07925604  0.73087135  0.12712384    -0.28100
C716        C  0.06312776  0.71936193  0.13759948    -0.03400
C717        C  0.05834738  0.73004532  0.15741394     0.05200
C718        C  0.07225863  0.74840928  0.15793308     0.03300
H719        H  0.05638930  0.70367212  0.13184881     0.08400
H720        H  0.07395880  0.76035863  0.17130329     0.07300
N721        N  0.00711528  0.69586907  0.28521328    -0.27100
N722        N  0.02118212  0.71054128  0.27678807    -0.35000
C723        C  0.03352358  0.71913868  0.29331519     0.01200
C724        C  0.02703043  0.70939389  0.31322828     0.07200
C725        C  0.01010446  0.69476221  0.30739338    -0.05900
H726        H  0.04695261  0.73089611  0.29080769     0.07900
H727        H  0.00080013  0.68382455  0.31826718     0.09100
Cu728      Cu  0.02483397  0.71649798  0.24305577     0.44200
Cu729      Cu  0.98631213  0.67647397  0.26571473     0.42000
Cu730      Cu  0.99923638  0.67656194  0.20635107     0.43900
N731        N  0.02988487  0.71611777  0.20899427    -0.34500
N732        N  0.02125333  0.70094628  0.19558424    -0.28800
C733        C  0.02949529  0.70395433  0.17495210    -0.04900
C734        C  0.04391078  0.72194405  0.17546826     0.07300
C735        C  0.04369181  0.72928933  0.19727663     0.01100
H736        H  0.02568384  0.69348730  0.16079330     0.08800
H737        H  0.05364109  0.74252920  0.20437574     0.07900
N738        N  0.97567752  0.65596170  0.22105973    -0.36000
N739        N  0.97041969  0.65656494  0.24244877    -0.28100
C740        C  0.95385176  0.64200216  0.24632386    -0.03400
C741        C  0.94858333  0.63153637  0.22648776     0.05200
C742        C  0.96274213  0.64080991  0.21081615     0.03300
H743        H  0.94636140  0.63907858  0.26245998     0.08400
H744        H  0.96324298  0.63725688  0.19315938     0.07300
N745        N  0.16856374  0.56392445  0.00572967    -0.27100
N746        N  0.15114634  0.57382272  0.01472744    -0.35000
C747        C  0.13893875  0.55865832  0.02579693     0.01200
C748        C  0.14905441  0.53804129  0.02372418     0.07200
C749        C  0.16784442  0.54212272  0.01082328    -0.05900
H750        H  0.12468738  0.56281078  0.03594104     0.07900
H751        H  0.18054741  0.53029892  0.00613778     0.09100
Cu752      Cu  0.14649951  0.60795002  0.01483942     0.44200
Cu753      Cu  0.19348245  0.58110475  0.98881947     0.42000
Cu754      Cu  0.18981685  0.64183901  0.99148001     0.43900
N755        N  0.14823430  0.64208490  0.01918304    -0.34500
N756        N  0.16450355  0.65459729  0.01120336    -0.28800
C757        C  0.16238998  0.67537494  0.01933874    -0.04900
C758        C  0.14387961  0.67587303  0.03308207     0.07300
C759        C  0.13527998  0.65451637  0.03248890     0.01100
H760        H  0.17398137  0.68882382  0.01621661     0.08800
H761        H  0.12139727  0.64811566  0.04203690     0.07900
N762        N  0.21330583  0.62461592  0.97293645    -0.36000
N763        N  0.21480499  0.60268411  0.97203597    -0.28100
C764        C  0.23099605  0.59716709  0.95757669    -0.03400
C765        C  0.24021514  0.61654384  0.94896608     0.05200
C766        C  0.22846200  0.63358407  0.95910573     0.03300
H767        H  0.23527730  0.58024976  0.95320109     0.08400
H768        H  0.22989597  0.65122297  0.95586554     0.07300
C769        C  0.41964459  0.78618143  0.11091610    -0.27500
C770        C  0.40543647  0.78271348  0.12919636     0.02100
C771        C  0.40942954  0.76458516  0.14350630     0.30200
C772        C  0.42733202  0.75028704  0.13943680    -0.19200
C773        C  0.44140809  0.75356173  0.12104744    -0.28600
C774        C  0.43756930  0.77184475  0.10683995     0.44300
C775        C  0.38570404  0.79719454  0.13245978     0.05500
O776        O  0.39502154  0.75985206  0.16062003    -0.57200
H777        H  0.42973803  0.73613246  0.15034174     0.18400
O778        O  0.45125341  0.77594546  0.08900783    -0.63900
H779        H  0.41677977  0.80004436  0.09974392     0.16800
C780        C  0.38191208  0.80837908  0.15271378     0.29100
C781        C  0.36210571  0.82019794  0.15603292    -0.24800
C782        C  0.34584081  0.82139801  0.13923453    -0.24100
C783        C  0.35029360  0.81113941  0.11849628     0.40500
C784        C  0.37005940  0.79922526  0.11529947    -0.26500
O785        O  0.39741404  0.80773880  0.16944388    -0.58400
H786        H  0.35934819  0.82803080  0.17202746     0.16200
O787        O  0.33582340  0.81318044  0.10096829    -0.59800
H788        H  0.37293436  0.79108902  0.09945048     0.14600
H789        H  0.46382160  0.78474526  0.09512877     0.46500
H790        H  0.40712023  0.82084879  0.16684109     0.41900
H791        H  0.32925751  0.79815997  0.09887563     0.45300
H792        H  0.40341609  0.76304224  0.17448126     0.36800
C793        C  0.86949238  0.55568989  0.23266826    -0.27500
C794        C  0.87964580  0.56519572  0.21385417     0.02100
C795        C  0.87275117  0.55821738  0.19248497     0.30200
C796        C  0.85556007  0.54253574  0.19024725    -0.19200
C797        C  0.84466153  0.53400681  0.20910161    -0.28600
C798        C  0.85208169  0.54038668  0.23042964     0.44300
C799        C  0.89716594  0.58248825  0.21681779     0.05500
O800        O  0.88210745  0.56722799  0.17367721    -0.57200
H801        H  0.84996593  0.53794841  0.17372052     0.18400
O802        O  0.84221568  0.53197389  0.24925340    -0.63900
H803        H  0.87496619  0.56027997  0.24923101     0.16800
C804        C  0.89375509  0.60087919  0.23103004     0.29100
C805        C  0.91067465  0.61665512  0.23404121    -0.24800
C806        C  0.93106533  0.61461819  0.22287473    -0.24100
C807        C  0.93446261  0.59636238  0.20856674     0.40500
C808        C  0.91763273  0.58045817  0.20569624    -0.26500
O809        O  0.87359302  0.60408524  0.24127179    -0.58400
H810        H  0.90767572  0.63075772  0.24487163     0.16200
O811        O  0.95434570  0.59358863  0.19771548    -0.59800
H812        H  0.92073974  0.56627250  0.19501813     0.14600
H813        H  0.84996950  0.51772658  0.25220586     0.46500
H814        H  0.87625417  0.60122737  0.25732261     0.41900
H815        H  0.96382524  0.58513020  0.20823721     0.45300
H816        H  0.87284904  0.58038855  0.17010721     0.36800
C817        C  0.56802091  0.62294035  0.98767872    -0.27500
C818        C  0.57304979  0.64068063  0.97338855     0.02100
C819        C  0.56261434  0.66135769  0.97665288     0.30200
C820        C  0.54842154  0.66444497  0.99491688    -0.19200
C821        C  0.54459202  0.64711552  0.01018380    -0.28600
C822        C  0.55383516  0.62595705  0.00586290     0.44300
C823        C  0.59016895  0.63763545  0.95597044     0.05500
O824        O  0.56612094  0.67852731  0.96196316    -0.57200
H825        H  0.54125043  0.68073143  0.99760413     0.18400
O826        O  0.54951553  0.60815106  0.01950161    -0.63900
H827        H  0.57569802  0.60684184  0.98512605     0.16800
C828        C  0.60973035  0.65056892  0.95609468     0.29100
C829        C  0.62616930  0.64694917  0.94005756    -0.24800
C830        C  0.62374187  0.63008829  0.92406344    -0.24100
C831        C  0.60427060  0.61697131  0.92406171     0.40500
C832        C  0.58762229  0.62084870  0.93993416    -0.26500
O833        O  0.61319670  0.66642115  0.97216883    -0.58400
H834        H  0.64114643  0.65701000  0.94049969     0.16200
O835        O  0.60090410  0.60106321  0.90802577    -0.59800
H836        H  0.57265852  0.61075490  0.93971617     0.14600
H837        H  0.53464597  0.60264414  0.01491028     0.46500
H838        H  0.61961478  0.65827299  0.98500388     0.41900
H839        H  0.60328351  0.58662315  0.91565053     0.45300
H840        H  0.57484877  0.68980583  0.97028652     0.36800
C841        C  0.80710143  0.71990308  0.48602981    -0.27500
C842        C  0.78444493  0.72440308  0.48921942     0.02100
C843        C  0.77612548  0.72695788  0.51094316     0.30200
C844        C  0.79046197  0.72533066  0.52919482    -0.19200
C845        C  0.81316909  0.72078888  0.52614922    -0.28600
C846        C  0.82144760  0.71794643  0.50434349     0.44300
C847        C  0.76943524  0.72672487  0.46991058     0.05500
O848        O  0.75393076  0.73086078  0.51447923    -0.57200
H849        H  0.78371434  0.72728344  0.54581670     0.18400
O850        O  0.84354221  0.71361340  0.50072408    -0.63900
H851        H  0.81363608  0.71792423  0.46932269     0.16800
C852        C  0.76817419  0.74689078  0.45814465     0.29100
C853        C  0.75246056  0.74946453  0.44111845    -0.24800
C854        C  0.73797236  0.73196136  0.43536383    -0.24100
C855        C  0.73956578  0.71161335  0.44711030     0.40500
C856        C  0.75520837  0.70916658  0.46419740    -0.26500
O857        O  0.78168997  0.76443866  0.46373609    -0.58400
H858        H  0.75167283  0.76520966  0.43238106     0.16200
O859        O  0.72548246  0.69420458  0.44264375    -0.59800
H860        H  0.75593476  0.69364409  0.47336016     0.14600
H861        H  0.85083684  0.72841803  0.50006955     0.46500
H862        H  0.79527282  0.76253629  0.45454978     0.41900
H863        H  0.71207887  0.69698495  0.45185582     0.45300
H864        H  0.75226872  0.74724970  0.51358243     0.36800
C865        C  0.63055315  0.00611310  0.58129759    -0.27500
C866        C  0.63361925  0.98582735  0.57022947     0.02100
C867        C  0.63800458  0.98585824  0.54720764     0.30200
C868        C  0.63996796  0.00609486  0.53570925    -0.19200
C869        C  0.63731812  0.02649798  0.54685653    -0.28600
C870        C  0.63231859  0.02631555  0.56984943     0.44300
C871        C  0.63329071  0.96488527  0.58321393     0.05500
O872        O  0.64084443  0.96622957  0.53591874    -0.57200
H873        H  0.64368952  0.00583728  0.51805184     0.18400
O874        O  0.62994395  0.04574913  0.58156232    -0.63900
H875        H  0.62715112  0.00627636  0.59902948     0.16800
C876        C  0.64926775  0.96110053  0.59986964     0.29100
C877        C  0.64818979  0.94184536  0.61291341    -0.24800
C878        C  0.63122718  0.92599065  0.60970834    -0.24100
C879        C  0.61559264  0.92955654  0.59248261     0.40500
C880        C  0.61671141  0.94889355  0.57944328    -0.26500
O881        O  0.66584981  0.97633917  0.60374859    -0.58400
H882        H  0.66040029  0.93971019  0.62596885     0.16200
O883        O  0.59910858  0.91435956  0.58817554    -0.59800
H884        H  0.60439410  0.95158494  0.56656090     0.14600
H885        H  0.64517266  0.04976473  0.58648897     0.46500
H886        H  0.67785044  0.97248367  0.59308808     0.41900
H887        H  0.60607417  0.90307595  0.57836950     0.45300
H888        H  0.65688624  0.96271195  0.53738921     0.36800
C889        C  0.75047770  0.44770781  0.77825525    -0.27500
C890        C  0.73273910  0.46282473  0.77756255     0.02100
C891        C  0.71679681  0.46096603  0.76050640     0.30200
C892        C  0.71876554  0.44425779  0.74443974    -0.19200
C893        C  0.73654033  0.42915923  0.74494815    -0.28600
C894        C  0.75239329  0.43087194  0.76221305     0.44300
C895        C  0.73172425  0.48149880  0.79362107     0.05500
O896        O  0.70005701  0.47633329  0.75857244    -0.57200
H897        H  0.70661398  0.44357955  0.73114967     0.18400
O898        O  0.76974918  0.41619279  0.76369153    -0.63900
H899        H  0.76289500  0.44901082  0.79126701     0.16800
C900        C  0.71263616  0.48524657  0.80664882     0.29100
C901        C  0.71061579  0.50494068  0.81889453    -0.24800
C902        C  0.72769612  0.52100784  0.81880141    -0.24100
C903        C  0.74766421  0.51615185  0.80736637     0.40500
C904        C  0.74943504  0.49666432  0.79473071    -0.26500
O905        O  0.69558210  0.47004177  0.80700841    -0.58400
H906        H  0.69524949  0.50787288  0.82780363     0.16200
O907        O  0.76547794  0.53041307  0.80807499    -0.59800
H908        H  0.76443890  0.49375430  0.78515652     0.14600
H909        H  0.76376001  0.40325494  0.77204987     0.46500
H910        H  0.69935502  0.45959402  0.81921366     0.41900
H911        H  0.77450829  0.52537129  0.82092951     0.45300
H912        H  0.68619100  0.46825175  0.76252249     0.36800
C913        C  0.96266135  0.60608592  0.64433726    -0.27500
C914        C  0.96240361  0.58831078  0.62927010     0.02100
C915        C  0.94548817  0.58698300  0.61320557     0.30200
C916        C  0.92909915  0.60348986  0.61225874    -0.19200
C917        C  0.92931385  0.62145928  0.62727477    -0.28600
C918        C  0.94632054  0.62259070  0.64346768     0.44300
C919        C  0.98038525  0.57168955  0.63009111     0.05500
O920        O  0.94493417  0.56969461  0.59830768    -0.57200
H921        H  0.91620582  0.60223543  0.59972647     0.18400
O922        O  0.94762339  0.64006074  0.65809711    -0.63900
H923        H  0.97577734  0.60729232  0.65665764     0.16800
C924        C  0.00141687  0.57665199  0.62119055     0.29100
C925        C  0.01892646  0.56162510  0.62380488    -0.24800
C926        C  0.01581873  0.54137853  0.63522728    -0.24100
C927        C  0.99431776  0.53601441  0.64315686     0.40500
C928        C  0.97684521  0.55121422  0.64067280    -0.26500
O929        O  0.00518444  0.59649155  0.61051017    -0.58400
H930        H  0.03513967  0.56632665  0.61751064     0.16200
O931        O  0.99015586  0.51609596  0.65349941    -0.59800
H932        H  0.96057432  0.54718239  0.64735243     0.14600
H933        H  0.95614631  0.65176810  0.65012617     0.46500
H934        H  0.00095673  0.59378873  0.59477412     0.41900
H935        H  0.98604235  0.50570041  0.64134218     0.45300
H936        H  0.95465678  0.57444808  0.58580348     0.36800
C937        C  0.09287786  0.70782183  0.39848671    -0.27500
C938        C  0.07512189  0.72257601  0.39550147     0.02100
C939        C  0.07220708  0.74020477  0.41064319     0.30200
C940        C  0.08729349  0.74313126  0.42821726    -0.19200
C941        C  0.10542637  0.72867060  0.43093743    -0.28600
C942        C  0.10805880  0.71082471  0.41585930     0.44300
C943        C  0.06078266  0.72006654  0.37562185     0.05500
O944        O  0.05432160  0.75422027  0.40870304    -0.57200
H945        H  0.08473923  0.75672564  0.43977675     0.18400
O946        O  0.12584438  0.69666895  0.41733741    -0.63900
H947        H  0.09544226  0.69433776  0.38678164     0.16800
C948        C  0.06005839  0.73684967  0.35930975     0.29100
C949        C  0.04832311  0.73336449  0.33953284    -0.24800
C950        C  0.03743689  0.71305853  0.33536123    -0.24100
C951        C  0.03794737  0.69631750  0.35189572     0.40500
C952        C  0.04951412  0.69995170  0.37182753    -0.26500
O953        O  0.07152554  0.75640907  0.36213077    -0.58400
H954        H  0.04814493  0.74653840  0.32722635     0.16200
O955        O  0.02806237  0.67601824  0.34850165    -0.59800
H956        H  0.05020663  0.68678094  0.38414099     0.14600
H957        H  0.13788441  0.70392640  0.40865196     0.46500
H958        H  0.08671013  0.75342233  0.35640940     0.41900
H959        H  0.03962116  0.66674393  0.34127416     0.45300
H960        H  0.06061786  0.76884392  0.40426736     0.36800
C961        C  0.32062508  0.63233561  0.87369019    -0.27500
C962        C  0.29774701  0.62764548  0.87252617     0.02100
C963        C  0.28718521  0.62745952  0.85162150     0.30200
C964        C  0.29952702  0.63147359  0.83229017    -0.19200
C965        C  0.32249146  0.63574566  0.83330248    -0.28600
C966        C  0.33302845  0.63626399  0.85426587     0.44300
C967        C  0.28477526  0.62365478  0.89316391     0.05500
O968        O  0.26458901  0.62446456  0.85005561    -0.57200
H969        H  0.29093215  0.63155199  0.81644235     0.18400
O970        O  0.35544406  0.64016383  0.85597477    -0.63900
H971        H  0.32893296  0.63265192  0.88969675     0.16800
C972        C  0.27207579  0.60411503  0.89593752     0.29100
C973        C  0.25814725  0.60173911  0.91447330    -0.24800
C974        C  0.25673748  0.61858112  0.93065821    -0.24100
C975        C  0.27049529  0.63754778  0.92851002     0.40500
C976        C  0.28439577  0.63991491  0.90989168    -0.26500
O977        O  0.27288691  0.58737100  0.88043497    -0.58400
H978        H  0.24793976  0.58692288  0.91577780     0.16200
O979        O  0.27094018  0.65357160  0.94477783    -0.59800
H980        H  0.29445681  0.65481401  0.90821904     0.14600
H981        H  0.36250973  0.62536353  0.85426703     0.46500
H982        H  0.28637717  0.57869054  0.88418255     0.41900
H983        H  0.26377119  0.66683320  0.93808076     0.45300
H984        H  0.26252181  0.60985547  0.84264899     0.36800
C985        C  0.50394968  0.78715454  0.73151802    -0.27500
C986        C  0.49301266  0.77686481  0.71357742     0.02100
C987        C  0.50074717  0.78103909  0.69174937     0.30200
C988        C  0.51917363  0.79497260  0.68823828    -0.19200
C989        C  0.53053972  0.80459561  0.70626301    -0.28600
C990        C  0.52256774  0.80077474  0.72803586     0.44300
C991        C  0.47364836  0.76186110  0.71783395     0.05500
O992        O  0.49075683  0.77117454  0.67373416    -0.57200
H993        H  0.52504303  0.79761167  0.67137533     0.18400
O994        O  0.53267155  0.81045525  0.74608099    -0.63900
H995        H  0.49794572  0.78476592  0.74836470     0.16800
C996        C  0.47470747  0.74479388  0.73396240     0.29100
C997        C  0.45637780  0.73072815  0.73745772    -0.24800
C998        C  0.43678409  0.73320712  0.72500701    -0.24100
C999        C  0.43556538  0.75049774  0.70917814     0.40500
C1000       C  0.45383691  0.76463167  0.70574394    -0.26500
O1001       O  0.49398665  0.74097361  0.74556072    -0.58400
H1002       H  0.45775344  0.71743494  0.74956796     0.16200
O1003       O  0.41649134  0.75398606  0.69718110    -0.59800
H1004       H  0.45241908  0.77797328  0.69369450     0.14600
H1005       H  0.52557473  0.82525711  0.74760310     0.46500
H1006       H  0.49083239  0.74572240  0.76106938     0.41900
H1007       H  0.40762654  0.76456862  0.70620770     0.45300
H1008       H  0.49916508  0.75722776  0.67120181     0.36800
C1009       C  0.90078944  0.26964806  0.61585228    -0.27500
C1010       C  0.88576004  0.26564772  0.63330013     0.02100
C1011       C  0.88862412  0.24678243  0.64688321     0.30200
C1012       C  0.90629532  0.23220925  0.64288259    -0.19200
C1013       C  0.92117325  0.23598910  0.62521032    -0.28600
C1014       C  0.91837087  0.25497183  0.61172157     0.44300
C1015       C  0.86667930  0.28078770  0.63665935     0.05500
O1016       O  0.87413841  0.24237851  0.66400517    -0.57200
H1017       H  0.90813432  0.21768786  0.65341411     0.18400
O1018       O  0.93281827  0.25948440  0.59461257    -0.63900
H1019       H  0.89868228  0.28404177  0.60519495     0.16800
C1020       C  0.86991074  0.30348380  0.64149270     0.29100
C1021       C  0.85152349  0.31747598  0.64434752    -0.24800
C1022       C  0.82978809  0.30924290  0.64187475    -0.24100
C1023       C  0.82659575  0.28648987  0.63702970     0.40500
C1024       C  0.84497685  0.27244809  0.63464490    -0.26500
O1025       O  0.89095661  0.31194225  0.64415693    -0.58400
H1026       H  0.85427419  0.33488040  0.64820406     0.16200
O1027       O  0.80560411  0.27757623  0.63570523    -0.59800
H1028       H  0.84228042  0.25498478  0.63100422     0.14600
H1029       H  0.94512829  0.26808558  0.60149722     0.46500
H1030       H  0.89436784  0.31971057  0.62999294     0.41900
H1031       H  0.80305981  0.27476041  0.61961878     0.45300
H1032       H  0.88063660  0.24987608  0.67720730     0.36800
C1033       C  0.23695189  0.89372460  0.59910925    -0.27500
C1034       C  0.22066859  0.89691354  0.58264887     0.02100
C1035       C  0.20981648  0.91763918  0.58134534     0.30200
C1036       C  0.21505651  0.93454872  0.59655468    -0.19200
C1037       C  0.23143297  0.93133129  0.61291837    -0.28600
C1038       C  0.24256552  0.91078182  0.61395769     0.44300
C1039       C  0.21477959  0.87819053  0.56755028     0.05500
O1040       O  0.19402814  0.92152689  0.56534207    -0.57200
H1041       H  0.20635692  0.95028228  0.59550164     0.18400
O1042       O  0.25787212  0.90666146  0.63036743    -0.63900
H1043       H  0.24504879  0.87773487  0.60081075     0.16800
C1044       C  0.23144584  0.86628452  0.55616443     0.29100
C1045       C  0.22588401  0.84728323  0.54385627    -0.24800
C1046       C  0.20376358  0.83994557  0.54243034    -0.24100
C1047       C  0.18694507  0.85229506  0.55308197     0.40500
C1048       C  0.19251972  0.87122404  0.56556991    -0.26500
O1049       O  0.25315948  0.87339469  0.55664030    -0.58400
H1050       H  0.23897210  0.83811619  0.53552604     0.16200
O1051       O  0.16517671  0.84544897  0.55229387    -0.59800
H1052       H  0.17949974  0.87999421  0.57441151     0.14600
H1053       H  0.27256259  0.90762400  0.62290426     0.46500
H1054       H  0.26120546  0.86231748  0.56584345     0.41900
H1055       H  0.16341813  0.83499128  0.56496920     0.45300
H1056       H  0.20250487  0.92595058  0.55186122     0.36800
C1057       C  0.41280934  0.08531666  0.73435728    -0.27500
C1058       C  0.39797358  0.08541399  0.71633356     0.02100
C1059       C  0.39930626  0.10282640  0.70064584     0.30200
C1060       C  0.41473033  0.12011941  0.70361744    -0.19200
C1061       C  0.42910189  0.12046143  0.72208937    -0.28600
C1062       C  0.42836495  0.10244991  0.73721456     0.44300
C1063       C  0.37998916  0.06840635  0.71525264     0.05500
O1064       O  0.38446354  0.10400781  0.68332946    -0.57200
H1065       H  0.41476357  0.13372698  0.69179790     0.18400
O1066       O  0.44265589  0.10132209  0.75494649    -0.63900
H1067       H  0.41217797  0.07193918  0.74645277     0.16800
C1068       C  0.37587643  0.05590212  0.69582123     0.29100
C1069       C  0.35720606  0.04192993  0.69464164    -0.24800
C1070       C  0.34263519  0.03974057  0.71286708    -0.24100
C1071       C  0.34798397  0.05072409  0.73295455     0.40500
C1072       C  0.36629280  0.06509757  0.73391575    -0.26500
O1073       O  0.38980281  0.05741510  0.67777745    -0.58400
H1074       H  0.35380896  0.03337395  0.67914466     0.16200
O1075       O  0.33534329  0.04777298  0.75175123    -0.59800
H1076       H  0.36948223  0.07413674  0.74920569     0.14600
H1077       H  0.45614476  0.09384704  0.74911272     0.46500
H1078       H  0.40252237  0.04754412  0.68131612     0.41900
H1079       H  0.34094444  0.03386298  0.75861389     0.45300
H1080       H  0.39340279  0.10157170  0.66964004     0.36800
C1081       C  0.12036481  0.37918016  0.81437654    -0.27500
C1082       C  0.11491283  0.37575534  0.79191691     0.02100
C1083       C  0.11070706  0.35405579  0.78427895     0.30200
C1084       C  0.11280337  0.33602516  0.79877200    -0.19200
C1085       C  0.11911123  0.33919070  0.82109806    -0.28600
C1086       C  0.12246576  0.36107014  0.82897326     0.44300
C1087       C  0.11465948  0.39461181  0.77612559     0.05500
O1088       O  0.10505750  0.35026512  0.76247019    -0.57200
H1089       H  0.11021173  0.31945248  0.79219162     0.18400
O1090       O  0.12797732  0.36495288  0.85078669    -0.63900
H1091       H  0.12351580  0.39586997  0.82045076     0.16800
C1092       C  0.09859189  0.41148665  0.77767584     0.29100
C1093       C  0.09783467  0.42828332  0.76150492    -0.24800
C1094       C  0.11332632  0.42879448  0.74396130    -0.24100
C1095       C  0.12965750  0.41203341  0.74270171     0.40500
C1096       C  0.13018508  0.39511897  0.75868848    -0.26500
O1097       O  0.08300648  0.41114395  0.79436766    -0.58400
H1098       H  0.08515624  0.44100175  0.76274426     0.16200
O1099       O  0.14473799  0.41156483  0.72555539    -0.59800
H1100       H  0.14260177  0.38214400  0.75733029     0.14600
H1101       H  0.11357063  0.36634968  0.85870800     0.46500
H1102       H  0.08890767  0.42128689  0.80599853     0.41900
H1103       H  0.13732185  0.40307045  0.71349480     0.45300
H1104       H  0.08861605  0.35154294  0.76199982     0.36800
C1105       C  0.60511049  0.91327151  0.29282914    -0.27500
C1106       C  0.62153180  0.89704109  0.28954091     0.02100
C1107       C  0.63452527  0.89763216  0.27003003     0.30200
C1108       C  0.63090990  0.91420268  0.25409812    -0.19200
C1109       C  0.61436934  0.93034993  0.25723176    -0.28600
C1110       C  0.60159354  0.92996479  0.27691805     0.44300
C1111       C  0.62420951  0.87874173  0.30581118     0.05500
O1112       O  0.64985455  0.88127599  0.26580022    -0.57200
H1113       H  0.64072878  0.91404413  0.23895707     0.18400
O1114       O  0.58583242  0.94593036  0.28089668    -0.63900
H1115       H  0.59502883  0.91299352  0.30779781     0.16800
C1116       C  0.64483813  0.87464720  0.31607098     0.29100
C1117       C  0.64780023  0.85545545  0.32891374    -0.24800
C1118       C  0.63031023  0.84016619  0.33187428    -0.24100
C1119       C  0.60918742  0.84522113  0.32299088     0.40500
C1120       C  0.60630133  0.86433966  0.31000053    -0.26500
O1121       O  0.66240753  0.88894147  0.31304669    -0.58400
H1122       H  0.66412147  0.85210707  0.33572895     0.16200
O1123       O  0.59134197  0.83139835  0.32650105    -0.59800
H1124       H  0.59022702  0.86750305  0.30249749     0.14600
H1125       H  0.59379801  0.95795408  0.28896143     0.46500
H1126       H  0.66093050  0.90019931  0.32503992     0.41900
H1127       H  0.58476519  0.83638774  0.34080209     0.45300
H1128       H  0.66459851  0.88856048  0.26739072     0.36800
C1129       C  0.55689801  0.20140752  0.86496174    -0.27500
C1130       C  0.56943900  0.22073669  0.86872911     0.02100
C1131       C  0.56767491  0.23853358  0.85361109     0.30200
C1132       C  0.55389093  0.23661845  0.83486082    -0.19200
C1133       C  0.54156140  0.21707524  0.83069081    -0.28600
C1134       C  0.54310604  0.19942554  0.84625036     0.44300
C1135       C  0.58515811  0.22154273  0.88782299     0.05500
O1136       O  0.58035696  0.25736085  0.85632276    -0.57200
H1137       H  0.55310094  0.25056416  0.82349686     0.18400
O1138       O  0.53169426  0.17989367  0.84329360    -0.63900
H1139       H  0.55806102  0.18757166  0.87648236     0.16800
C1140       C  0.58376277  0.23819122  0.90425779     0.29100
C1141       C  0.59908699  0.23864843  0.92185291    -0.24800
C1142       C  0.61585592  0.22244624  0.92366918    -0.24100
C1143       C  0.61705073  0.20564823  0.90724278     0.40500
C1144       C  0.60173976  0.20525551  0.88965598    -0.26500
O1145       O  0.56729773  0.25392152  0.90346421    -0.58400
H1146       H  0.59757560  0.25157716  0.93431856     0.16200
O1147       O  0.63338909  0.18979287  0.90779878    -0.59800
H1148       H  0.60306641  0.19235003  0.87712112     0.14600
H1149       H  0.54211972  0.16996964  0.83524763     0.46500
H1150       H  0.55452154  0.24720687  0.91151275     0.41900
H1151       H  0.64623999  0.19655576  0.89991821     0.45300
H1152       H  0.56973655  0.26923838  0.86055930     0.36800
C1153       C  0.69665712  0.35229682  0.07140975    -0.27500
C1154       C  0.71845975  0.36049970  0.07402852     0.02100
C1155       C  0.73588283  0.34972206  0.06248060     0.30200
C1156       C  0.73155855  0.33063948  0.04974575    -0.19200
C1157       C  0.70983002  0.32241243  0.04735909    -0.28600
C1158       C  0.69225070  0.33367562  0.05799534     0.44300
C1159       C  0.72304853  0.37944855  0.08961018     0.05500
O1160       O  0.75726390  0.35767581  0.06349904    -0.57200
H1161       H  0.74525669  0.32236101  0.04146612     0.18400
O1162       O  0.67078002  0.32613534  0.05613125    -0.63900
H1163       H  0.68299076  0.35985827  0.08035659     0.16800
C1164       C  0.70964401  0.39872633  0.09003265     0.29100
C1165       C  0.71427703  0.41596851  0.10516580    -0.24800
C1166       C  0.73231388  0.41458604  0.11997685    -0.24100
C1167       C  0.74561599  0.39531331  0.11964349     0.40500
C1168       C  0.74085140  0.37799059  0.10474740    -0.26500
O1169       O  0.69262744  0.40135535  0.07504307    -0.58400
H1170       H  0.70393874  0.43070540  0.10496978     0.16200
O1171       O  0.76305119  0.39292516  0.13414951    -0.59800
H1172       H  0.75098188  0.36312740  0.10534336     0.14600
H1173       H  0.66886305  0.31530366  0.06845597     0.46500
H1174       H  0.67874514  0.40060951  0.08397393     0.41900
H1175       H  0.75647565  0.38627159  0.14777320     0.45300
H1176       H  0.75824513  0.36906661  0.05157557     0.36800
C1177       C  0.80369706  0.14024084  0.37695564    -0.27500
C1178       C  0.78138623  0.13361362  0.37490629     0.02100
C1179       C  0.77301979  0.12797912  0.35378764     0.30200
C1180       C  0.78671631  0.12936845  0.33502934    -0.19200
C1181       C  0.80897391  0.13639926  0.33681907    -0.28600
C1182       C  0.81748077  0.14169599  0.35809421     0.44300
C1183       C  0.76649989  0.13317242  0.39456814     0.05500
O1184       O  0.75131758  0.12132314  0.35127764    -0.57200
H1185       H  0.77965012  0.12535092  0.31893961     0.18400
O1186       O  0.83919892  0.14820048  0.36070088    -0.63900
H1187       H  0.81033045  0.14458552  0.39316088     0.16800
C1188       C  0.76933581  0.11748610  0.41171955     0.29100
C1189       C  0.75364590  0.11602952  0.42897785    -0.24800
C1190       C  0.73526134  0.13043761  0.42967475    -0.24100
C1191       C  0.73279311  0.14647686  0.41268438     0.40500
C1192       C  0.74831260  0.14770176  0.39534585    -0.26500
O1193       O  0.78678108  0.10283945  0.41117883    -0.58400
H1194       H  0.75587261  0.10360268  0.44185440     0.16200
O1195       O  0.71485176  0.16051373  0.41233719    -0.59800
H1196       H  0.74591099  0.15977959  0.38216040     0.14600
H1197       H  0.84766274  0.13418931  0.36259086     0.46500
H1198       H  0.79858510  0.10986472  0.42035056     0.41900
H1199       H  0.70306403  0.15226222  0.40424317     0.45300
H1200       H  0.75127730  0.10517536  0.35469961     0.36800
C1201       C  0.28078662  0.20132029  0.98668427    -0.27500
C1202       C  0.27871611  0.22357034  0.97983400     0.02100
C1203       C  0.29108034  0.24015676  0.99089048     0.30200
C1204       C  0.30466762  0.23447215  0.00888079    -0.19200
C1205       C  0.30660590  0.21225673  0.01582754    -0.28600
C1206       C  0.29480955  0.19555283  0.00434490     0.44300
C1207       C  0.26296445  0.22934061  0.96176740     0.05500
O1208       O  0.28985257  0.26200144  0.98438384    -0.57200
H1209       H  0.31373854  0.24750082  0.01746387     0.18400
O1210       O  0.29560660  0.17380446  0.01122621    -0.63900
H1211       H  0.27102837  0.18840659  0.97871668     0.16800
C1212       C  0.26344012  0.21804546  0.94124658     0.29100
C1213       C  0.24769059  0.22298692  0.92486649    -0.24800
C1214       C  0.23119048  0.23908163  0.92857489    -0.24100
C1215       C  0.23092936  0.25063694  0.94901329     0.40500
C1216       C  0.24673729  0.24572522  0.96538015    -0.26500
O1217       O  0.27966613  0.20263699  0.93682127    -0.58400
H1218       H  0.24845200  0.21415443  0.90915994     0.16200
O1219       O  0.21491171  0.26619577  0.95354211    -0.59800
H1220       H  0.24591787  0.25432407  0.98122046     0.14600
H1221       H  0.30549363  0.16622900  0.00040011     0.46500
H1222       H  0.27200181  0.18799198  0.93701887     0.41900
H1223       H  0.20237207  0.25770768  0.96016200     0.45300
H1224       H  0.30044467  0.26340552  0.97177804     0.36800
C1225       C  0.45309257  0.08937798  0.11136685    -0.27500
C1226       C  0.45037477  0.07373245  0.12860689     0.02100
C1227       C  0.43009094  0.07337138  0.14048408     0.30200
C1228       C  0.41361450  0.08912877  0.13588292    -0.19200
C1229       C  0.41656034  0.10493750  0.11892759    -0.28600
C1230       C  0.43629862  0.10465920  0.10629298     0.44300
C1231       C  0.46928897  0.05903527  0.13499079     0.05500
O1232       O  0.42624505  0.05784400  0.15679749    -0.57200
H1233       H  0.39841073  0.08896507  0.14559368     0.18400
O1234       O  0.43982033  0.11988702  0.08962737    -0.63900
H1235       H  0.46863296  0.09039138  0.10229704     0.16800
C1236       C  0.48219083  0.04796678  0.11879805     0.29100
C1237       C  0.50116529  0.03605245  0.12517800    -0.24800
C1238       C  0.50743882  0.03453737  0.14764174    -0.24100
C1239       C  0.49401427  0.04472004  0.16393742     0.40500
C1240       C  0.47538772  0.05712643  0.15752772    -0.26500
O1241       O  0.47602481  0.04818405  0.09678635    -0.58400
H1242       H  0.51102434  0.02792918  0.11245316     0.16200
O1243       O  0.49976525  0.04398105  0.18602494    -0.59800
H1244       H  0.46609809  0.06587824  0.17025296     0.14600
H1245       H  0.44661168  0.13297554  0.09706038     0.46500
H1246       H  0.48774320  0.05682774  0.08893984     0.41900
H1247       H  0.48954416  0.03290368  0.19280728     0.45300
H1248       H  0.42119710  0.04431294  0.14878614     0.36800
C1249       C  0.24478040  0.95307169  0.27349467    -0.27500
C1250       C  0.22678786  0.96764300  0.27038552     0.02100
C1251       C  0.21344610  0.96521198  0.25123964     0.30200
C1252       C  0.21793525  0.94824261  0.23587852    -0.19200
C1253       C  0.23583631  0.93359902  0.23900833    -0.28600
C1254       C  0.24934898  0.93618006  0.25803354     0.44300
C1255       C  0.22286623  0.98607730  0.28648777     0.05500
O1256       O  0.19688008  0.98022140  0.24669503    -0.57200
H1257       H  0.20762085  0.94689334  0.22115098     0.18400
O1258       O  0.26687385  0.92214717  0.26189389    -0.63900
H1259       H  0.25529541  0.95474691  0.28805162     0.16800
C1260       C  0.20174389  0.98985826  0.29598261     0.29100
C1261       C  0.19810219  0.00864249  0.30933460    -0.24800
C1262       C  0.21543186  0.02371339  0.31395529    -0.24100
C1263       C  0.23696194  0.01890387  0.30581984     0.40500
C1264       C  0.24044199  0.00043087  0.29205528    -0.26500
O1265       O  0.18448270  0.97538329  0.29220188    -0.58400
H1266       H  0.18149486  0.01160795  0.31563013     0.16200
O1267       O  0.25481602  0.03210893  0.31111413    -0.59800
H1268       H  0.25692033  0.99756204  0.28533164     0.14600
H1269       H  0.26037971  0.90921873  0.26987535     0.46500
H1270       H  0.18523864  0.96440474  0.30452567     0.41900
H1271       H  0.26032829  0.02629907  0.32554551     0.45300
H1272       H  0.18276825  0.97165777  0.24755373     0.36800
C1273       C  0.07669272  0.11519494  0.44404962    -0.27500
C1274       C  0.07845732  0.13269418  0.45942525     0.02100
C1275       C  0.09638115  0.14774364  0.45757964     0.30200
C1276       C  0.11205926  0.14522943  0.44047457    -0.19200
C1277       C  0.11037858  0.12767346  0.42511570    -0.28600
C1278       C  0.09248613  0.11254911  0.42706124     0.44300
C1279       C  0.06219232  0.13442945  0.47798091     0.05500
O1280       O  0.09943136  0.16412991  0.47322020    -0.57200
H1281       H  0.12590379  0.15677329  0.43959848     0.18400
O1282       O  0.08973700  0.09567880  0.41192009    -0.63900
H1283       H  0.06296894  0.10352078  0.44520999     0.16800
C1284       C  0.05047497  0.15427155  0.48211221     0.29100
C1285       C  0.03692020  0.15612025  0.50099511    -0.24800
C1286       C  0.03452093  0.13825456  0.51593402    -0.24100
C1287       C  0.04510192  0.11789220  0.51094619     0.40500
C1288       C  0.05875906  0.11613028  0.49209294    -0.26500
O1289       O  0.05235101  0.17206896  0.46792931    -0.58400
H1290       H  0.02883335  0.17186338  0.50424747     0.16200
O1291       O  0.04180089  0.09946853  0.52406405    -0.59800
H1292       H  0.06720166  0.10055264  0.48884017     0.14600
H1293       H  0.09383233  0.08187067  0.41998475     0.46500
H1294       H  0.04081956  0.16959763  0.45638532     0.41900
H1295       H  0.05626751  0.09671153  0.53150363     0.45300
H1296       H  0.09691668  0.17836702  0.46525801     0.36800
C1297       C  0.94065504  0.25971836  0.20335296    -0.27500
C1298       C  0.96071905  0.25760019  0.21513535     0.02100
C1299       C  0.96222789  0.24132248  0.23203357     0.30200
C1300       C  0.94393300  0.22764918  0.23689874    -0.19200
C1301       C  0.92409110  0.22945061  0.22473724    -0.28600
C1302       C  0.92252201  0.24574948  0.20792515     0.44300
C1303       C  0.97980988  0.27259551  0.20990182     0.05500
O1304       O  0.98164842  0.23831504  0.24361479    -0.57200
H1305       H  0.94551738  0.21510687  0.24976461     0.18400
O1306       O  0.90323952  0.24839869  0.19603865    -0.63900
H1307       H  0.93893315  0.27241855  0.19067204     0.16800
C1308       C  0.98744175  0.27553175  0.18784119     0.29100
C1309       C  0.00558542  0.28963705  0.18343699    -0.24800
C1310       C  0.01653923  0.30075950  0.20081357    -0.24100
C1311       C  0.00871251  0.29808709  0.22278951     0.40500
C1312       C  0.99048598  0.28421060  0.22716619    -0.26500
O1313       O  0.97810365  0.26369245  0.17067364    -0.58400
H1314       H  0.01159730  0.29124933  0.16649139     0.16200
O1315       O  0.01871958  0.30904882  0.24014928    -0.59800
H1316       H  0.98461768  0.28257764  0.24415850     0.14600
H1317       H  0.89398264  0.25862141  0.20509798     0.46500
H1318       H  0.96946903  0.27469798  0.16194510     0.41900
H1319       H  0.01107150  0.32362968  0.24105075     0.45300
H1320       H  0.99073193  0.22823699  0.23422369     0.36800
C1321       C  0.11474217  0.44302824  0.07087888    -0.27500
C1322       C  0.12916280  0.46031240  0.07723012     0.02100
C1323       C  0.13909489  0.45973510  0.09842676     0.30200
C1324       C  0.13482109  0.44191934  0.11282225    -0.19200
C1325       C  0.12059968  0.42445864  0.10648145    -0.28600
C1326       C  0.11054671  0.42508505  0.08528322     0.44300
C1327       C  0.13382248  0.47900902  0.06180947     0.05500
O1328       O  0.15232401  0.47698380  0.10550731    -0.57200
H1329       H  0.14250022  0.44190366  0.12914280     0.18400
O1330       O  0.09711399  0.40801006  0.07824020    -0.63900
H1331       H  0.10704693  0.44327643  0.05456734     0.16800
C1332       C  0.15552001  0.48299718  0.05394891     0.29100
C1333       C  0.16007107  0.50187954  0.04107184    -0.24800
C1334       C  0.14319328  0.51713845  0.03572656    -0.24100
C1335       C  0.12122203  0.51256176  0.04285558     0.40500
C1336       C  0.11669898  0.49353561  0.05567118    -0.26500
O1337       O  0.17251532  0.46873213  0.05914384    -0.58400
H1338       H  0.17706556  0.50486337  0.03588088     0.16200
O1339       O  0.10395929  0.52623694  0.03698328    -0.59800
H1340       H  0.09985391  0.49044017  0.06134573     0.14600
H1341       H  0.10734463  0.39696278  0.07151250     0.46500
H1342       H  0.17180485  0.45684459  0.04770712     0.41900
H1343       H  0.09946615  0.53385664  0.05093099     0.45300
H1344       H  0.16774969  0.47119543  0.10499765     0.36800
loop_ 
_geom_bond_atom_site_label_1 
_geom_bond_atom_site_label_2 
_geom_bond_distance 
_geom_bond_site_symmetry_2 
_ccdc_geom_bond_type 
N1            N2   1.322       .  A
N1            C5   1.341       .  A
N1           Cu9   2.061       .  S
N2            C3   1.346       .  A
N2           Cu8   2.073       .  S
C3            C4   1.384       .  A
C3            H6   1.082       .  S
C4            C5   1.380       .  A
C4           C38   1.467       .  S
C5            H7   1.082       .  S
Cu8          N11   2.073       .  S
Cu9          N19   2.061       .  S
Cu10         N12   2.074       .  S
Cu10         N18   2.075       .  S
N11          N12   1.323       .  A
N11          C15   1.344       .  A
N12          C13   1.345       .  A
C13          C14   1.383       .  A
C13          H16   1.082       .  S
C14          C15   1.383       .  A
C14          C86   1.470       .  S
C15          H17   1.082       .  S
N18          N19   1.321       .  A
N18          C22   1.344       .  A
N19          C20   1.344       .  A
C20          C21   1.381       .  A
C20          H23   1.082       .  S
C21          C22   1.384       .  A
C21          C62   1.469       .  S
C22          H24   1.082       .  S
N25          N26   1.323       .  A
N25          C29   1.350       .  A
N25         Cu33   2.098       .  S
N26          C27   1.342       .  A
N26         Cu32   2.063       .  S
C27          C28   1.380       .  A
C27          H30   1.082       .  S
C28          C29   1.389       .  A
C28        C1310   1.481       .  S
C29          H31   1.082       .  S
Cu32         N35   2.063       .  S
Cu33         N43   2.098       .  S
Cu34         N36   2.062       .  S
Cu34         N42   2.064       .  S
N35          N36   1.320       .  A
N35          C39   1.342       .  A
N36          C37   1.345       .  A
C37          C38   1.383       .  A
C37          H40   1.082       .  S
C38          C39   1.382       .  A
C39          H41   1.082       .  S
N42          N43   1.323       .  A
N42          C46   1.341       .  A
N43          C44   1.350       .  A
C44          C45   1.389       .  A
C44          H47   1.082       .  S
C45          C46   1.380       .  A
C45        C1325   1.481       .  S
C46          H48   1.082       .  S
N49          N50   1.320       .  A
N49          C53   1.347       .  A
N49         Cu57   2.082       .  S
N50          C51   1.342       .  A
N50         Cu56   2.064       .  S
C51          C52   1.387       .  A
C51          H54   1.081       .  S
C52          C53   1.391       .  A
C52        C1262   1.490       .  S
C53          H55   1.081       .  S
Cu56         N59   2.063       .  S
Cu57         N67   2.082       .  S
Cu58         N60   2.077       .  S
Cu58         N66   2.078       .  S
N59          N60   1.322       .  A
N59          C63   1.343       .  A
N60          C61   1.346       .  A
C61          C62   1.385       .  A
C61          H64   1.082       .  S
C62          C63   1.380       .  A
C63          H65   1.082       .  S
N66          N67   1.323       .  A
N66          C70   1.346       .  A
N67          C68   1.345       .  A
C68          C69   1.386       .  A
C68          H71   1.081       .  S
C69          C70   1.386       .  A
C69        C1277   1.485       .  S
C70          H72   1.082       .  S
N73          N74   1.322       .  A
N73          C77   1.346       .  A
N73         Cu81   2.076       .  S
N74          C75   1.342       .  A
N74         Cu80   2.063       .  S
C75          C76   1.381       .  A
C75          H78   1.082       .  S
C76          C77   1.386       .  A
C76        C1205   1.476       .  S
C77          H79   1.082       .  S
Cu80         N83   2.063       .  S
Cu81         N91   2.077       .  S
Cu82         N84   2.074       .  S
Cu82         N90   2.074       .  S
N83          N84   1.321       .  A
N83          C87   1.343       .  A
N84          C85   1.345       .  A
C85          C86   1.384       .  A
C85          H88   1.082       .  S
C86          C87   1.382       .  A
C87          H89   1.082       .  S
N90          N91   1.322       .  A
N90          C94   1.344       .  A
N91          C92   1.347       .  A
C92          C93   1.385       .  A
C92          H95   1.082       .  S
C93          C94   1.383       .  A
C93        C1229   1.478       .  S
C94          H96   1.082       .  S
N97          N98   1.322       .  A
N97         C101   1.349       .  A
N97        Cu105   2.088       .  S
N98          C99   1.342       .  A
N98        Cu104   2.068       .  S
C99         C100   1.385       .  A
C99         H102   1.082       .  S
C100        C101   1.390       .  A
C100       C1181   1.487       .  S
C101        H103   1.082       .  S
Cu104       N107   2.068       .  S
Cu105       N115   2.089       .  S
Cu106       N108   2.075       .  S
Cu106       N114   2.076       .  S
N107        N108   1.321       .  A
N107        C111   1.345       .  A
N108        C109   1.345       .  A
C109        C110   1.384       .  A
C109        H112   1.082       .  S
C110        C111   1.383       .  A
C110        C124   1.472       .  S
C111        H113   1.082       .  S
N114        N115   1.323       .  A
N114        C118   1.345       .  A
N115        C116   1.347       .  A
C116        C117   1.387       .  A
C116        H119   1.082       .  S
C117        C118   1.384       .  A
C117       C1301   1.482       .  S
C118        H120   1.082       .  S
N121        N122   1.323       .  A
N121        C125   1.346       .  A
N121       Cu129   2.078       .  S
N122        C123   1.344       .  A
N122       Cu128   2.071       .  S
C123        C124   1.382       .  A
C123        H126   1.082       .  S
C124        C125   1.384       .  A
C125        H127   1.082       .  S
Cu128       N131   2.071       .  S
Cu129       N139   2.078       .  S
Cu130       N132   2.073       .  S
Cu130       N138   2.072       .  S
N131        N132   1.321       .  A
N131        C135   1.344       .  A
N132        C133   1.346       .  A
C133        C134   1.384       .  A
C133        H136   1.082       .  S
C134        C135   1.383       .  A
C134        C158   1.472       .  S
C135        H137   1.082       .  S
N138        N139   1.323       .  A
N138        C142   1.344       .  A
N139        C140   1.346       .  A
C140        C141   1.384       .  A
C140        H143   1.082       .  S
C141        C142   1.381       .  A
C141        C182   1.471       .  S
C142        H144   1.082       .  S
N145        N146   1.322       .  A
N145        C149   1.348       .  A
N145       Cu153   2.085   1_554  S
N146        C147   1.346       .  A
N146       Cu152   2.077       .  S
C147        C148   1.385       .  A
C147        H150   1.082       .  S
C148        C149   1.387       .  A
C148       C1157   1.484       .  S
C149        H151   1.082       .  S
Cu152       N155   2.076       .  S
Cu153       N163   2.085       .  S
Cu154       N156   2.082   1_556  S
Cu154       N162   2.082       .  S
N155        N156   1.323       .  A
N155        C159   1.344       .  A
N156        C157   1.347       .  A
C157        C158   1.384       .  A
C157        H160   1.082       .  S
C158        C159   1.382       .  A
C159        H161   1.082       .  S
N162        N163   1.322       .  A
N162        C166   1.347       .  A
N163        C164   1.346       .  A
C164        C165   1.388       .  A
C164        H167   1.082       .  S
C165        C166   1.389       .  A
C165       C1142   1.491       .  S
C166        H168   1.081       .  S
N169        N170   1.323       .  A
N169        C173   1.347       .  A
N169       Cu177   2.081   1_545  S
N170        C171   1.344       .  A
N170       Cu176   2.076       .  S
C171        C172   1.384       .  A
C171        H174   1.082       .  S
C172        C173   1.386       .  A
C172       C1238   1.482       .  S
C173        H175   1.081       .  S
Cu176       N179   2.075       .  S
Cu177       N187   2.081       .  S
Cu178       N180   2.061   1_565  S
Cu178       N186   2.061       .  S
N179        N180   1.321       .  A
N179        C183   1.345       .  A
N180        C181   1.344       .  A
C181        C182   1.382       .  A
C181        H184   1.082       .  S
C182        C183   1.385       .  A
C183        H185   1.082       .  S
N186        N187   1.322       .  A
N186        C190   1.341       .  A
N187        C188   1.347       .  A
C188        C189   1.387       .  A
C188        H191   1.082       .  S
C189        C190   1.381       .  A
C189       C1109   1.478       .  S
C190        H192   1.082       .  S
N193        N194   1.321       .  A
N193        C197   1.347       .  A
N193       Cu201   2.080       .  S
N194        C195   1.341       .  A
N194       Cu200   2.065       .  S
C195        C196   1.384       .  A
C195        H198   1.082       .  S
C196        C197   1.389       .  A
C196       C1085   1.483       .  S
C197        H199   1.082       .  S
Cu200       N203   2.065       .  S
Cu201       N211   2.080       .  S
Cu202       N204   2.061       .  S
Cu202       N210   2.061       .  S
N203        N204   1.320       .  A
N203        C207   1.344       .  A
N204        C205   1.343       .  A
C205        C206   1.382       .  A
C205        H208   1.082       .  S
C206        C207   1.382       .  A
C206        C237   1.466       .  S
C207        H209   1.082       .  S
N210        N211   1.322       .  A
N210        C214   1.341       .  A
N211        C212   1.346       .  A
C212        C213   1.388       .  A
C212        H215   1.081       .  S
C213        C214   1.382       .  A
C213       C1214   1.480       .  S
C214        H216   1.082       .  S
N217        N218   1.323       .  A
N217        C221   1.345       .  A
N217       Cu225   2.069       .  S
N218        C219   1.343       .  A
N218       Cu224   2.073       .  S
C219        C220   1.382       .  A
C219        H222   1.082       .  S
C220        C221   1.382       .  A
C220        C278   1.468       .  S
C221        H223   1.082       .  S
Cu224       N227   2.073       .  S
Cu225       N235   2.069       .  S
Cu226       N228   2.067       .  S
Cu226       N234   2.067       .  S
N227        N228   1.321       .  A
N227        C231   1.345       .  A
N228        C229   1.344       .  A
C229        C230   1.383       .  A
C229        H232   1.082       .  S
C230        C231   1.384       .  A
C230        C254   1.471       .  S
C231        H233   1.082       .  S
N234        N235   1.322       .  A
N234        C238   1.343       .  A
N235        C236   1.345       .  A
C236        C237   1.382       .  A
C236        H239   1.082       .  S
C237        C238   1.381       .  A
C238        H240   1.082       .  S
N241        N242   1.322       .  A
N241        C245   1.347       .  A
N241       Cu249   2.081   1_545  S
N242        C243   1.343       .  A
N242       Cu248   2.073       .  S
C243        C244   1.386       .  A
C243        H246   1.081       .  S
C244        C245   1.389       .  A
C244       C1070   1.487       .  S
C245        H247   1.082       .  S
Cu248       N251   2.072       .  S
Cu249       N259   2.082       .  S
Cu250       N252   2.069   1_565  S
Cu250       N258   2.069       .  S
N251        N252   1.321       .  A
N251        C255   1.345       .  A
N252        C253   1.345       .  A
C253        C254   1.383       .  A
C253        H256   1.082       .  S
C254        C255   1.384       .  A
C255        H257   1.082       .  S
N258        N259   1.323       .  A
N258        C262   1.344       .  A
N259        C260   1.346       .  A
C260        C261   1.387       .  A
C260        H263   1.082       .  S
C261        C262   1.382       .  A
C261       C1037   1.479       .  S
C262        H264   1.082       .  S
N265        N266   1.321       .  A
N265        C269   1.347       .  A
N265       Cu273   2.087   1_455  S
N266        C267   1.342       .  A
N266       Cu272   2.064       .  S
C267        C268   1.385       .  A
C267        H270   1.081       .  S
C268        C269   1.390       .  A
C268       C1286   1.487       .  S
C269        H271   1.082   1_455  S
Cu272       N275   2.063       .  S
Cu273       N283   2.087       .  S
Cu274       N276   2.067   1_655  S
Cu274       N282   2.068       .  S
N275        N276   1.320       .  A
N275        C279   1.342       .  A
N276        C277   1.345       .  A
C277        C278   1.384       .  A
C277        H280   1.082       .  S
C278        C279   1.382       .  A
C279        H281   1.082       .  S
N282        N283   1.323       .  A
N282        C286   1.343       .  A
N283        C284   1.347       .  A
C284        C285   1.387       .  A
C284        H287   1.082       .  S
C285        C286   1.382       .  A
C285       C1013   1.480       .  S
C286        H288   1.082       .  S
N289        N290   1.320       .  A
N289        C293   1.349       .  A
N289       Cu297   2.084       .  S
N290        C291   1.340       .  A
N290       Cu296   2.055       .  S
C291        C292   1.382       .  A
C291        H294   1.082       .  S
C292        C293   1.390       .  A
C292        C965   1.482       .  S
C293        H295   1.082       .  S
Cu296       N299   2.055       .  S
Cu297       N307   2.085       .  S
Cu298       N300   2.082       .  S
Cu298       N306   2.084       .  S
N299        N300   1.321       .  A
N299        C303   1.342       .  A
N300        C301   1.347       .  A
C301        C302   1.386       .  A
C301        H304   1.082       .  S
C302        C303   1.380       .  A
C302        C326   1.470       .  S
C303        H305   1.082       .  S
N306        N307   1.324       .  A
N306        C310   1.346       .  A
N307        C308   1.346       .  A
C308        C309   1.386       .  A
C308        H311   1.082       .  S
C309        C310   1.386       .  A
C309        C998   1.484       .  S
C310        H312   1.082       .  S
N313        N314   1.322       .  A
N313        C317   1.345       .  A
N313       Cu321   2.074       .  S
N314        C315   1.344       .  A
N314       Cu320   2.067       .  S
C315        C316   1.382       .  A
C315        H318   1.082       .  S
C316        C317   1.384       .  A
C316        C350   1.470       .  S
C317        H319   1.082       .  S
Cu320       N323   2.067       .  S
Cu321       N331   2.074       .  S
Cu322       N324   2.076       .  S
Cu322       N330   2.075       .  S
N323        N324   1.322       .  A
N323        C327   1.345       .  A
N324        C325   1.344       .  A
C325        C326   1.384       .  A
C325        H328   1.082       .  S
C326        C327   1.381       .  A
C327        H329   1.082       .  S
N330        N331   1.322       .  A
N330        C334   1.347       .  A
N331        C332   1.343       .  A
C332        C333   1.383       .  A
C332        H335   1.082       .  S
C333        C334   1.384       .  A
C333        C374   1.471       .  S
C334        H336   1.082       .  S
N337        N338   1.323       .  A
N337        C341   1.348       .  A
N337       Cu345   2.085       .  S
N338        C339   1.343       .  A
N338       Cu344   2.074       .  S
C339        C340   1.382       .  A
C339        H342   1.082       .  S
C340        C341   1.386       .  A
C340       C1046   1.479       .  S
C341        H343   1.082       .  S
Cu344       N347   2.074       .  S
Cu345       N355   2.085       .  S
Cu346       N348   2.065       .  S
Cu346       N354   2.065       .  S
N347        N348   1.321       .  A
N347        C351   1.345       .  A
N348        C349   1.344       .  A
C349        C350   1.382       .  A
C349        H352   1.082       .  S
C350        C351   1.384       .  A
C351        H353   1.082       .  S
N354        N355   1.322       .  A
N354        C358   1.342       .  A
N355        C356   1.347       .  A
C356        C357   1.388       .  A
C356        H359   1.082       .  S
C357        C358   1.384       .  A
C357        C941   1.484       .  S
C358        H360   1.081       .  S
N361        N362   1.320       .  A
N361        C365   1.346       .  A
N361       Cu369   2.078       .  S
N362        C363   1.342       .  A
N362       Cu368   2.065       .  S
C363        C364   1.387       .  A
C363        H366   1.081       .  S
C364        C365   1.390       .  A
C364        C926   1.488       .  S
C365        H367   1.081       .  S
Cu368       N371   2.066       .  S
Cu369       N379   2.078       .  S
Cu370       N372   2.074       .  S
Cu370       N378   2.075       .  S
N371        N372   1.321       .  A
N371        C375   1.343       .  A
N372        C373   1.347       .  A
C373        C374   1.385       .  A
C373        H376   1.082       .  S
C374        C375   1.382       .  A
C375        H377   1.082       .  S
N378        N379   1.323       .  A
N378        C382   1.344       .  A
N379        C380   1.345       .  A
C380        C381   1.384       .  A
C380        H383   1.082       .  S
C381        C382   1.384       .  A
C381       C1094   1.480       .  S
C382        H384   1.082       .  S
N385        N386   1.323       .  A
N385        C389   1.346       .  A
N385       Cu393   2.073       .  S
N386        C387   1.343       .  A
N386       Cu392   2.080       .  S
C387        C388   1.385       .  A
C387        H390   1.082       .  S
C388        C389   1.386       .  A
C388        C893   1.483       .  S
C389        H391   1.081       .  S
Cu392       N395   2.080       .  S
Cu393       N403   2.072       .  S
Cu394       N396   2.063       .  S
Cu394       N402   2.065       .  S
N395        N396   1.321       .  A
N395        C399   1.348       .  A
N396        C397   1.343       .  A
C397        C398   1.381       .  A
C397        H400   1.082       .  S
C398        C399   1.387       .  A
C398        C412   1.473       .  S
C399        H401   1.082       .  S
N402        N403   1.321       .  A
N402        C406   1.343       .  A
N403        C404   1.346       .  A
C404        C405   1.385       .  A
C404        H407   1.082       .  S
C405        C406   1.383       .  A
C405       C1022   1.478       .  S
C406        H408   1.081       .  S
N409        N410   1.322       .  A
N409        C413   1.346       .  A
N409       Cu417   2.070       .  S
N410        C411   1.345       .  A
N410       Cu416   2.080       .  S
C411        C412   1.385       .  A
C411        H414   1.082       .  S
C412        C413   1.383       .  A
C413        H415   1.082       .  S
Cu416       N419   2.079       .  S
Cu417       N427   2.070       .  S
Cu418       N420   2.075       .  S
Cu418       N426   2.075       .  S
N419        N420   1.323       .  A
N419        C423   1.346       .  A
N420        C421   1.345       .  A
C421        C422   1.383       .  A
C421        H424   1.082       .  S
C422        C423   1.384       .  A
C422        C470   1.472       .  S
C423        H425   1.082       .  S
N426        N427   1.322       .  A
N426        C430   1.346       .  A
N427        C428   1.343       .  A
C428        C429   1.382       .  A
C428        H431   1.082       .  S
C429        C430   1.384       .  A
C429        C446   1.470       .  S
C430        H432   1.082       .  S
N433        N434   1.319       .  A
N433        C437   1.345       .  A
N433       Cu441   2.078       .  S
N434        C435   1.344       .  A
N434       Cu440   2.074       .  S
C435        C436   1.391       .  A
C435        H438   1.081       .  S
C436        C437   1.393       .  A
C436       C1133   1.498       .  S
C437        H439   1.079       .  S
Cu440       N443   2.073       .  S
Cu441       N451   2.077       .  S
Cu442       N444   2.072       .  S
Cu442       N450   2.073       .  S
N443        N444   1.323       .  A
N443        C447   1.344       .  A
N444        C445   1.345       .  A
C445        C446   1.383       .  A
C445        H448   1.082       .  S
C446        C447   1.382       .  A
C447        H449   1.082       .  S
N450        N451   1.321       .  A
N450        C454   1.345       .  A
N451        C452   1.344       .  A
C452        C453   1.389       .  A
C452        H455   1.080       .  S
C453        C454   1.388       .  A
C453       C1061   1.490       .  S
C454        H456   1.082       .  S
N457        N458   1.322       .  A
N457        C461   1.347       .  A
N457       Cu465   2.083       .  S
N458        C459   1.344       .  A
N458       Cu464   2.072       .  S
C459        C460   1.385       .  A
C459        H462   1.081       .  S
C460        C461   1.388       .  A
C460        C869   1.484       .  S
C461        H463   1.082       .  S
Cu464       N467   2.072       .  S
Cu465       N475   2.083       .  S
Cu466       N468   2.076       .  S
Cu466       N474   2.077       .  S
N467        N468   1.322       .  A
N467        C471   1.345       .  A
N468        C469   1.346       .  A
C469        C470   1.384       .  A
C469        H472   1.082       .  S
C470        C471   1.383       .  A
C471        H473   1.082       .  S
N474        N475   1.323       .  A
N474        C478   1.344       .  A
N475        C476   1.346       .  A
C476        C477   1.386       .  A
C476        H479   1.082       .  S
C477        C478   1.385       .  A
C477       C1190   1.484       .  S
C478        H480   1.081       .  S
N481        N482   1.322       .  A
N481        C485   1.347       .  A
N481       Cu489   2.078       .  S
N482        C483   1.344       .  A
N482       Cu488   2.073       .  S
C483        C484   1.384       .  A
C483        H486   1.082       .  S
C484        C485   1.385       .  A
C484        C845   1.480       .  S
C485        H487   1.082       .  S
Cu488       N491   2.072       .  S
Cu489       N499   2.078       .  S
Cu490       N492   2.069       .  S
Cu490       N498   2.070       .  S
N491        N492   1.322       .  A
N491        C495   1.345       .  A
N492        C493   1.344       .  A
C493        C494   1.382       .  A
C493        H496   1.082       .  S
C494        C495   1.383       .  A
C494        C508   1.469       .  S
C495        H497   1.082       .  S
N498        N499   1.322       .  A
N498        C502   1.344       .  A
N499        C500   1.345       .  A
C500        C501   1.386       .  A
C500        H503   1.082       .  S
C501        C502   1.386       .  A
C501        C917   1.483       .  S
C502        H504   1.081       .  S
N505        N506   1.322       .  A
N505        C509   1.344       .  A
N505       Cu513   2.072       .  S
N506        C507   1.345       .  A
N506       Cu512   2.069       .  S
C507        C508   1.383       .  A
C507        H510   1.082       .  S
C508        C509   1.383       .  A
C509        H511   1.082       .  S
Cu512       N515   2.068       .  S
Cu513       N523   2.072       .  S
Cu514       N516   2.074       .  S
Cu514       N522   2.074       .  S
N515        N516   1.322       .  A
N515        C519   1.344       .  A
N516        C517   1.344       .  A
C517        C518   1.383       .  A
C517        H520   1.082       .  S
C518        C519   1.382       .  A
C518        C542   1.470       .  S
C519        H521   1.082       .  S
N522        N523   1.322       .  A
N522        C526   1.345       .  A
N523        C524   1.345       .  A
C524        C525   1.382       .  A
C524        H527   1.082       .  S
C525        C526   1.384       .  A
C525        C566   1.471       .  S
C526        H528   1.082       .  S
N529        N530   1.321       .  A
N529        C533   1.347       .  A
N529       Cu537   2.082       .  S
N530        C531   1.344       .  A
N530       Cu536   2.069       .  S
C531        C532   1.385       .  A
C531        H534   1.082       .  S
C532        C533   1.388       .  A
C532        C989   1.484       .  S
C533        H535   1.082       .  S
Cu536       N539   2.069       .  S
Cu537       N547   2.082       .  S
Cu538       N540   2.072       .  S
Cu538       N546   2.073       .  S
N539        N540   1.322       .  A
N539        C543   1.344       .  A
N540        C541   1.345       .  A
C541        C542   1.383       .  A
C541        H544   1.082       .  S
C542        C543   1.382       .  A
C543        H545   1.082       .  S
N546        N547   1.322       .  A
N546        C550   1.344       .  A
N547        C548   1.345       .  A
C548        C549   1.389       .  A
C548        H551   1.081       .  S
C549        C550   1.388       .  A
C549        C878   1.489       .  S
C550        H552   1.082       .  S
N553        N554   1.321       .  A
N553        C557   1.344       .  A
N553       Cu561   2.073       .  S
N554        C555   1.344       .  A
N554       Cu560   2.077       .  S
C555        C556   1.389       .  A
C555        H558   1.081       .  S
C556        C557   1.388       .  A
C556        C902   1.488       .  S
C557        H559   1.081       .  S
Cu560       N563   2.076       .  S
Cu561       N571   2.073       .  S
Cu562       N564   2.066       .  S
Cu562       N570   2.066       .  S
N563        N564   1.321       .  A
N563        C567   1.345       .  A
N564        C565   1.345       .  A
C565        C566   1.382       .  A
C565        H568   1.082       .  S
C566        C567   1.384       .  A
C567        H569   1.082       .  S
N570        N571   1.322       .  A
N570        C574   1.342       .  A
N571        C572   1.345       .  A
C572        C573   1.385       .  A
C572        H575   1.081       .  S
C573        C574   1.382       .  A
C573        C830   1.477       .  S
C574        H576   1.082       .  S
N577        N578   1.322       .  A
N577        C581   1.346       .  A
N577       Cu585   2.080       .  S
N578        C579   1.344       .  A
N578       Cu584   2.075       .  S
C579        C580   1.385       .  A
C579        H582   1.082       .  S
C580        C581   1.387       .  A
C580       C1118   1.483       .  S
C581        H583   1.082       .  S
Cu584       N587   2.075       .  S
Cu585       N595   2.081       .  S
Cu586       N588   2.072       .  S
Cu586       N594   2.072       .  S
N587        N588   1.321       .  A
N587        C591   1.345       .  A
N588        C589   1.346       .  A
C589        C590   1.383       .  A
C589        H592   1.082       .  S
C590        C591   1.385       .  A
C590        C614   1.473       .  S
C591        H593   1.082       .  S
N594        N595   1.321       .  A
N594        C598   1.343       .  A
N595        C596   1.347       .  A
C596        C597   1.389       .  A
C596        H599   1.082       .  S
C597        C598   1.386       .  A
C597        C854   1.488       .  S
C598        H600   1.081       .  S
N601        N602   1.324       .  A
N601        C605   1.346       .  A
N601       Cu609   2.078       .  S
N602        C603   1.347       .  A
N602       Cu608   2.086       .  S
C603        C604   1.385       .  A
C603        H606   1.082       .  S
C604        C605   1.382       .  A
C604        C638   1.474       .  S
C605        H607   1.082       .  S
Cu608       N611   2.086       .  S
Cu609       N619   2.078       .  S
Cu610       N612   2.068       .  S
Cu610       N618   2.068       .  S
N611        N612   1.323       .  A
N611        C615   1.348       .  A
N612        C613   1.344       .  A
C613        C614   1.381       .  A
C613        H616   1.082       .  S
C614        C615   1.386       .  A
C615        H617   1.082       .  S
N618        N619   1.321       .  A
N618        C622   1.345       .  A
N619        C620   1.346       .  A
C620        C621   1.386       .  A
C620        H623   1.082       .  S
C621        C622   1.382       .  A
C621        C662   1.474       .  S
C622        H624   1.082       .  S
N625        N626   1.324       .  A
N625        C629   1.348       .  A
N625       Cu633   2.095       .  S
N626        C627   1.346       .  A
N626       Cu632   2.084       .  S
C627        C628   1.385       .  A
C627        H630   1.082       .  S
C628        C629   1.389       .  A
C628       C1166   1.489       .  S
C629        H631   1.082       .  S
Cu632       N635   2.083       .  S
Cu633       N643   2.093       .  S
Cu634       N636   2.063       .  S
Cu634       N642   2.061       .  S
N635        N636   1.321       .  A
N635        C639   1.347       .  A
N636        C637   1.345       .  A
C637        C638   1.382       .  A
C637        H640   1.082       .  S
C638        C639   1.387       .  A
C639        H641   1.082       .  S
N642        N643   1.322       .  A
N642        C646   1.341       .  A
N643        C644   1.350       .  A
C644        C645   1.390       .  A
C644        H647   1.082       .  S
C645        C646   1.380       .  A
C645        C797   1.480       .  S
C646        H648   1.082       .  S
N649        N650   1.324       .  A
N649        C653   1.347       .  A
N649       Cu657   2.080       .  S
N650        C651   1.344       .  A
N650       Cu656   2.083       .  S
C651        C652   1.384       .  A
C651        H654   1.082       .  S
C652        C653   1.386       .  A
C652        C773   1.482       .  S
C653        H655   1.082       .  S
Cu656       N659   2.081       .  S
Cu657       N667   2.079       .  S
Cu658       N660   2.061       .  S
Cu658       N666   2.061       .  S
N659        N660   1.320       .  A
N659        C663   1.347       .  A
N660        C661   1.344       .  A
C661        C662   1.382       .  A
C661        H664   1.082       .  S
C662        C663   1.387       .  A
C663        H665   1.082       .  S
N666        N667   1.321       .  A
N666        C670   1.339       .  A
N667        C668   1.347       .  A
C668        C669   1.390       .  A
C668        H671   1.082       .  S
C669        C670   1.383       .  A
C669        C821   1.483       .  S
C670        H672   1.081       .  S
N673        N674   1.321       .  A
N673        C677   1.349       .  A
N673       Cu681   2.091       .  S
N674        C675   1.342       .  A
N674       Cu680   2.067       .  S
C675        C676   1.387       .  A
C675        H678   1.080       .  S
C676        C677   1.393       .  A
C676        C782   1.492       .  S
C677        H679   1.081       .  S
Cu680       N683   2.066       .  S
Cu681       N691   2.092       .  S
Cu682       N684   2.078       .  S
Cu682       N690   2.079       .  S
N683        N684   1.321       .  A
N683        C687   1.343       .  A
N684        C685   1.348       .  A
C685        C686   1.386       .  A
C685        H688   1.082       .  S
C686        C687   1.382       .  A
C686        C710   1.473       .  S
C687        H689   1.082       .  S
N690        N691   1.324       .  A
N690        C694   1.344       .  A
N691        C692   1.349       .  A
C692        C693   1.388       .  A
C692        H695   1.082       .  S
C693        C694   1.384       .  A
C693       C1253   1.486       .  S
C694        H696   1.082       .  S
N697        N698   1.322       .  A
N697        C701   1.344       .  A
N697       Cu705   2.070       .  S
N698        C699   1.347       .  A
N698       Cu704   2.079       .  S
C699        C700   1.385       .  A
C699        H702   1.082       .  S
C700        C701   1.383       .  A
C700        C758   1.473       .  S
C701        H703   1.082       .  S
Cu704       N707   2.080       .  S
Cu705       N715   2.070       .  S
Cu706       N708   2.075       .  S
Cu706       N714   2.075       .  S
N707        N708   1.323       .  A
N707        C711   1.344       .  A
N708        C709   1.347       .  A
C709        C710   1.384       .  A
C709        H712   1.082       .  S
C710        C711   1.384       .  A
C711        H713   1.082       .  S
N714        N715   1.322       .  A
N714        C718   1.344       .  A
N715        C716   1.345       .  A
C716        C717   1.382       .  A
C716        H719   1.082       .  S
C717        C718   1.383       .  A
C717        C734   1.470       .  S
C718        H720   1.082       .  S
N721        N722   1.320       .  A
N721        C725   1.345       .  A
N721       Cu729   2.071   1_455  S
N722        C723   1.342       .  A
N722       Cu728   2.068       .  S
C723        C724   1.386       .  A
C723        H726   1.082       .  S
C724        C725   1.388       .  A
C724        C950   1.485       .  S
C725        H727   1.081       .  S
Cu728       N731   2.067       .  S
Cu729       N739   2.072       .  S
Cu730       N732   2.075   1_655  S
Cu730       N738   2.075       .  S
N731        N732   1.322       .  A
N731        C735   1.344       .  A
N732        C733   1.346       .  A
C733        C734   1.384       .  A
C733        H736   1.082       .  S
C734        C735   1.382       .  A
C735        H737   1.082       .  S
N738        N739   1.323       .  A
N738        C742   1.345       .  A
N739        C740   1.344       .  A
C740        C741   1.383       .  A
C740        H743   1.082       .  S
C741        C742   1.384       .  A
C741        C806   1.478       .  S
C742        H744   1.082       .  S
N745        N746   1.321       .  A
N745        C749   1.346       .  A
N745       Cu753   2.080   1_554  S
N746        C747   1.344       .  A
N746       Cu752   2.070       .  S
C747        C748   1.387       .  A
C747        H750   1.080       .  S
C748        C749   1.390       .  A
C748       C1334   1.489       .  S
C749        H751   1.082       .  S
Cu752       N755   2.070       .  S
Cu753       N763   2.080       .  S
Cu754       N756   2.076   1_556  S
Cu754       N762   2.076       .  S
N755        N756   1.321       .  A
N755        C759   1.343       .  A
N756        C757   1.347       .  A
C757        C758   1.385       .  A
C757        H760   1.082       .  S
C758        C759   1.383       .  A
C759        H761   1.082       .  S
N762        N763   1.322       .  A
N762        C766   1.344       .  A
N763        C764   1.346       .  A
C764        C765   1.388       .  A
C764        H767   1.082       .  S
C765        C766   1.386       .  A
C765        C974   1.485       .  S
C766        H768   1.081       .  S
C769        C770   1.405       .  A
C769        C774   1.403       .  A
C769        H779   1.084       .  S
C770        C771   1.408       .  A
C770        C775   1.486       .  S
C771        C772   1.400       .  A
C771        O776   1.372       .  S
C772        C773   1.404       .  A
C772        H777   1.083       .  S
C773        C774   1.410       .  A
C774        O778   1.371       .  S
C775        C780   1.408       .  A
C775        C784   1.401       .  A
O776        H792   0.992       .  S
O778        H789   0.992       .  S
C780        C781   1.402       .  A
C780        O785   1.371       .  S
C781        C782   1.407       .  A
C781        H786   1.082       .  S
C782        C783   1.415       .  A
C783        C784   1.402       .  A
C783        O787   1.372       .  S
C784        H788   1.084       .  S
O785        H790   0.991       .  S
O787        H791   0.992       .  S
C793        C794   1.404       .  A
C793        C798   1.398       .  A
C793        H803   1.083       .  S
C794        C795   1.412       .  A
C794        C799   1.488       .  S
C795        C796   1.403       .  A
C795        O800   1.372       .  S
C796        C797   1.403       .  A
C796        H801   1.083       .  S
C797        C798   1.409       .  A
C798        O802   1.372       .  S
C799        C804   1.412       .  A
C799        C808   1.405       .  A
O800        H816   0.992       .  S
O802        H813   0.992       .  S
C804        C805   1.400       .  A
C804        O809   1.373       .  S
C805        C806   1.402       .  A
C805        H810   1.084       .  S
C806        C807   1.409       .  A
C807        C808   1.401       .  A
C807        O811   1.371       .  S
C808        H812   1.083       .  S
O809        H814   0.992       .  S
O811        H815   0.992       .  S
C817        C818   1.400       .  A
C817        C822   1.397   1_556  A
C817        H827   1.084       .  S
C818        C819   1.407       .  A
C818        C823   1.478       .  S
C819        C820   1.401       .  A
C819        O824   1.373       .  S
C820        C821   1.405   1_556  A
C820        H825   1.083       .  S
C821        C822   1.413       .  A
C822        O826   1.371       .  S
C823        C828   1.408       .  A
C823        C832   1.403       .  A
O824        H840   0.991       .  S
O826        H837   0.992       .  S
C828        C829   1.397       .  A
C828        O833   1.372       .  S
C829        C830   1.403       .  A
C829        H834   1.083       .  S
C830        C831   1.409       .  A
C831        C832   1.401       .  A
C831        O835   1.372       .  S
C832        H836   1.084       .  S
O833        H838   0.992       .  S
O835        H839   0.992       .  S
C841        C842   1.402       .  A
C841        C846   1.403       .  A
C841        H851   1.084       .  S
C842        C843   1.405       .  A
C842        C847   1.476       .  S
C843        C844   1.398       .  A
C843        O848   1.372       .  S
C844        C845   1.405       .  A
C844        H849   1.083       .  S
C845        C846   1.411       .  A
C846        O850   1.371       .  S
C847        C852   1.405       .  A
C847        C856   1.399       .  A
O848        H864   0.992       .  S
O850        H861   0.991       .  S
C852        C853   1.401       .  A
C852        O857   1.371       .  S
C853        C854   1.407       .  A
C853        H858   1.083       .  S
C854        C855   1.415       .  A
C855        C856   1.400       .  A
C855        O859   1.371       .  S
C856        H860   1.084       .  S
O857        H862   0.992       .  S
O859        H863   0.991       .  S
C865        C866   1.401   1_545  A
C865        C870   1.399       .  A
C865        H875   1.084       .  S
C866        C867   1.407       .  A
C866        C871   1.480       .  S
C867        C868   1.403   1_565  A
C867        O872   1.371       .  S
C868        C869   1.406       .  A
C868        H873   1.083       .  S
C869        C870   1.412       .  A
C870        O874   1.371       .  S
C871        C876   1.406       .  A
C871        C880   1.401       .  A
O872        H888   0.992       .  S
O874        H885   0.991       .  S
C876        C877   1.398       .  A
C876        O881   1.372       .  S
C877        C878   1.407       .  A
C877        H882   1.082       .  S
C878        C879   1.415       .  A
C879        C880   1.402       .  A
C879        O883   1.371       .  S
C880        H884   1.084       .  S
O881        H886   0.992       .  S
O883        H887   0.991       .  S
C889        C890   1.403       .  A
C889        C894   1.402       .  A
C889        H899   1.084       .  S
C890        C891   1.407       .  A
C890        C895   1.481       .  S
C891        C892   1.398       .  A
C891        O896   1.373       .  S
C892        C893   1.404       .  A
C892        H897   1.083       .  S
C893        C894   1.412       .  A
C894        O898   1.371       .  S
C895        C900   1.407       .  A
C895        C904   1.401       .  A
O896        H912   0.992       .  S
O898        H909   0.992       .  S
C900        C901   1.399       .  A
C900        O905   1.372       .  S
C901        C902   1.407       .  A
C901        H906   1.082       .  S
C902        C903   1.413       .  A
C903        C904   1.400       .  A
C903        O907   1.370       .  S
C904        H908   1.084       .  S
O905        H910   0.992       .  S
O907        H911   0.992       .  S
C913        C914   1.400       .  A
C913        C918   1.399       .  A
C913        H923   1.084       .  S
C914        C915   1.404       .  A
C914        C919   1.475       .  S
C915        C916   1.401       .  A
C915        O920   1.371       .  S
C916        C917   1.407       .  A
C916        H921   1.083       .  S
C917        C918   1.413       .  A
C918        O922   1.371       .  S
C919        C924   1.403   1_655  A
C919        C928   1.400       .  A
O920        H936   0.992       .  S
O922        H933   0.992       .  S
C924        C925   1.398       .  A
C924        O929   1.372       .  S
C925        C926   1.408       .  A
C925        H930   1.082       .  S
C926        C927   1.413   1_455  A
C927        C928   1.402       .  A
C927        O931   1.371       .  S
C928        H932   1.084       .  S
O929        H934   0.992       .  S
O931        H935   0.992       .  S
C937        C938   1.401       .  A
C937        C942   1.398       .  A
C937        H947   1.084       .  S
C938        C939   1.407       .  A
C938        C943   1.480       .  S
C939        C940   1.403       .  A
C939        O944   1.373       .  S
C940        C941   1.405       .  A
C940        H945   1.083       .  S
C941        C942   1.413       .  A
C942        O946   1.371       .  S
C943        C948   1.406       .  A
C943        C952   1.403       .  A
O944        H960   0.992       .  S
O946        H957   0.992       .  S
C948        C949   1.397       .  A
C948        O953   1.372       .  S
C949        C950   1.406       .  A
C949        H954   1.083       .  S
C950        C951   1.413       .  A
C951        C952   1.401       .  A
C951        O955   1.371       .  S
C952        H956   1.084       .  S
O953        H958   0.992       .  S
O955        H959   0.992       .  S
C961        C962   1.405       .  A
C961        C966   1.403       .  A
C961        H971   1.083       .  S
C962        C963   1.407       .  A
C962        C967   1.482       .  S
C963        C964   1.397       .  A
C963        O968   1.373       .  S
C964        C965   1.405       .  A
C964        H969   1.083       .  S
C965        C966   1.410       .  A
C966        O970   1.371       .  S
C967        C972   1.409       .  A
C967        C976   1.402       .  A
O968        H984   0.992       .  S
O970        H981   0.992       .  S
C972        C973   1.399       .  A
C972        O977   1.372       .  S
C973        C974   1.406       .  A
C973        H978   1.083       .  S
C974        C975   1.412       .  A
C975        C976   1.402       .  A
C975        O979   1.372       .  S
C976        H980   1.084       .  S
O977        H982   0.991       .  S
O979        H983   0.992       .  S
C985        C986   1.405       .  A
C985        C990   1.400       .  A
C985        H995   1.083       .  S
C986        C987   1.412       .  A
C986        C991   1.492       .  S
C987        C988   1.402       .  A
C987        O992   1.372       .  S
C988        C989   1.404       .  A
C988        H993   1.083       .  S
C989        C990   1.410       .  A
C990        O994   1.371       .  S
C991        C996   1.412       .  A
C991       C1000   1.405       .  A
O992       H1008   0.992       .  S
O994       H1005   0.992       .  S
C996        C997   1.402       .  A
C996       O1001   1.372       .  S
C997        C998   1.404       .  A
C997       H1002   1.083       .  S
C998        C999   1.410       .  A
C999       C1000   1.402       .  A
C999       O1003   1.371       .  S
C1000      H1004   1.083       .  S
O1001      H1006   0.992       .  S
O1003      H1007   0.992       .  S
C1009      C1010   1.403       .  A
C1009      C1014   1.400       .  A
C1009      H1019   1.083       .  S
C1010      C1011   1.407       .  A
C1010      C1015   1.480       .  S
C1011      C1012   1.399       .  A
C1011      O1016   1.372       .  S
C1012      C1013   1.405       .  A
C1012      H1017   1.083       .  S
C1013      C1014   1.409       .  A
C1014      O1018   1.371       .  S
C1015      C1020   1.407       .  A
C1015      C1024   1.402       .  A
O1016      H1032   0.992       .  S
O1018      H1029   0.992       .  S
C1020      C1021   1.401       .  A
C1020      O1025   1.372       .  S
C1021      C1022   1.404       .  A
C1021      H1026   1.083       .  S
C1022      C1023   1.411       .  A
C1023      C1024   1.399       .  A
C1023      O1027   1.372       .  S
C1024      H1028   1.084       .  S
O1025      H1030   0.991       .  S
O1027      H1031   0.992       .  S
C1033      C1034   1.405       .  A
C1033      C1038   1.399       .  A
C1033      H1043   1.083       .  S
C1034      C1035   1.410       .  A
C1034      C1039   1.487       .  S
C1035      C1036   1.402       .  A
C1035      O1040   1.372       .  S
C1036      C1037   1.405       .  A
C1036      H1041   1.084       .  S
C1037      C1038   1.408       .  A
C1038      O1042   1.372       .  S
C1039      C1044   1.409       .  A
C1039      C1048   1.406       .  A
O1040      H1056   0.992       .  S
O1042      H1053   0.991       .  S
C1044      C1045   1.400       .  A
C1044      O1049   1.373       .  S
C1045      C1046   1.402       .  A
C1045      H1050   1.084       .  S
C1046      C1047   1.409       .  A
C1047      C1048   1.402       .  A
C1047      O1051   1.371       .  S
C1048      H1052   1.083       .  S
O1049      H1054   0.992       .  S
O1051      H1055   0.992       .  S
C1057      C1058   1.403       .  A
C1057      C1062   1.400       .  A
C1057      H1067   1.084       .  S
C1058      C1059   1.410       .  A
C1058      C1063   1.487       .  S
C1059      C1060   1.402       .  A
C1059      O1064   1.372       .  S
C1060      C1061   1.406       .  A
C1060      H1065   1.082       .  S
C1061      C1062   1.413       .  A
C1062      O1066   1.370       .  S
C1063      C1068   1.409       .  A
C1063      C1072   1.404       .  A
O1064      H1080   0.993       .  S
O1066      H1077   0.992       .  S
C1068      C1069   1.402       .  A
C1068      O1073   1.371       .  S
C1069      C1070   1.407       .  A
C1069      H1074   1.082       .  S
C1070      C1071   1.412       .  A
C1071      C1072   1.398       .  A
C1071      O1075   1.371       .  S
C1072      H1076   1.084       .  S
O1073      H1078   0.992       .  S
O1075      H1079   0.992       .  S
C1081      C1082   1.403       .  A
C1081      C1086   1.403       .  A
C1081      H1091   1.083       .  S
C1082      C1083   1.405       .  A
C1082      C1087   1.477       .  S
C1083      C1084   1.395       .  A
C1083      O1088   1.372       .  S
C1084      C1085   1.406       .  A
C1084      H1089   1.082       .  S
C1085      C1086   1.411       .  A
C1086      O1090   1.371       .  S
C1087      C1092   1.405       .  A
C1087      C1096   1.402       .  A
O1088      H1104   0.992       .  S
O1090      H1101   0.991       .  S
C1092      C1093   1.401       .  A
C1092      O1097   1.371       .  S
C1093      C1094   1.406       .  A
C1093      H1098   1.083       .  S
C1094      C1095   1.410       .  A
C1095      C1096   1.398       .  A
C1095      O1099   1.371       .  S
C1096      H1100   1.084       .  S
O1097      H1102   0.992       .  S
O1099      H1103   0.991       .  S
C1105      C1106   1.403       .  A
C1105      C1110   1.402       .  A
C1105      H1115   1.084       .  S
C1106      C1107   1.408       .  A
C1106      C1111   1.480       .  S
C1107      C1108   1.398       .  A
C1107      O1112   1.373       .  S
C1108      C1109   1.404       .  A
C1108      H1113   1.083       .  S
C1109      C1110   1.409       .  A
C1110      O1114   1.371       .  S
C1111      C1116   1.407       .  A
C1111      C1120   1.402       .  A
O1112      H1128   0.992       .  S
O1114      H1125   0.992       .  S
C1116      C1117   1.399       .  A
C1116      O1121   1.371       .  S
C1117      C1118   1.405       .  A
C1117      H1122   1.083       .  S
C1118      C1119   1.411       .  A
C1119      C1120   1.400       .  A
C1119      O1123   1.371       .  S
C1120      H1124   1.084       .  S
O1121      H1126   0.992       .  S
O1123      H1127   0.992       .  S
C1129      C1130   1.402       .  A
C1129      C1134   1.402       .  A
C1129      H1139   1.084       .  S
C1130      C1131   1.407       .  A
C1130      C1135   1.487       .  S
C1131      C1132   1.403       .  A
C1131      O1136   1.372       .  S
C1132      C1133   1.410       .  A
C1132      H1137   1.082       .  S
C1133      C1134   1.416       .  A
C1134      O1138   1.370       .  S
C1135      C1140   1.408       .  A
C1135      C1144   1.403       .  A
O1136      H1152   0.992       .  S
O1138      H1149   0.992       .  S
C1140      C1141   1.402       .  A
C1140      O1145   1.371       .  S
C1141      C1142   1.408       .  A
C1141      H1146   1.083       .  S
C1142      C1143   1.413       .  A
C1143      C1144   1.401       .  A
C1143      O1147   1.371       .  S
C1144      H1148   1.084       .  S
O1145      H1150   0.992       .  S
O1147      H1151   0.992       .  S
C1153      C1154   1.408       .  A
C1153      C1158   1.404       .  A
C1153      H1163   1.082       .  S
C1154      C1155   1.414       .  A
C1154      C1159   1.499       .  S
C1155      C1156   1.402       .  A
C1155      O1160   1.371       .  S
C1156      C1157   1.403       .  A
C1156      H1161   1.084       .  S
C1157      C1158   1.409       .  A
C1158      O1162   1.371       .  S
C1159      C1164   1.413       .  A
C1159      C1168   1.407       .  A
O1160      H1176   0.992       .  S
O1162      H1173   0.992       .  S
C1164      C1165   1.406       .  A
C1164      O1169   1.372       .  S
C1165      C1166   1.405       .  A
C1165      H1170   1.083       .  S
C1166      C1167   1.409       .  A
C1167      C1168   1.402       .  A
C1167      O1171   1.371       .  S
C1168      H1172   1.083       .  S
O1169      H1174   0.992       .  S
O1171      H1175   0.992       .  S
C1177      C1178   1.404       .  A
C1177      C1182   1.405       .  A
C1177      H1187   1.083       .  S
C1178      C1179   1.405       .  A
C1178      C1183   1.481       .  S
C1179      C1180   1.397       .  A
C1179      O1184   1.372       .  S
C1180      C1181   1.406       .  A
C1180      H1185   1.083       .  S
C1181      C1182   1.412       .  A
C1182      O1186   1.371       .  S
C1183      C1188   1.407       .  A
C1183      C1192   1.402       .  A
O1184      H1200   0.992       .  S
O1186      H1197   0.991       .  S
C1188      C1189   1.403       .  A
C1188      O1193   1.371       .  S
C1189      C1190   1.406       .  A
C1189      H1194   1.083       .  S
C1190      C1191   1.411       .  A
C1191      C1192   1.399       .  A
C1191      O1195   1.371       .  S
C1192      H1196   1.084       .  S
O1193      H1198   0.992       .  S
O1195      H1199   0.991       .  S
C1201      C1202   1.405       .  A
C1201      C1206   1.399   1_556  A
C1201      H1211   1.083       .  S
C1202      C1203   1.408       .  A
C1202      C1207   1.482       .  S
C1203      C1204   1.398   1_556  A
C1203      O1208   1.372       .  S
C1204      C1205   1.404       .  A
C1204      H1209   1.084       .  S
C1205      C1206   1.408       .  A
C1206      O1210   1.371       .  S
C1207      C1212   1.407       .  A
C1207      C1216   1.405       .  A
O1208      H1224   0.992       .  S
O1210      H1221   0.992       .  S
C1212      C1213   1.398       .  A
C1212      O1217   1.373       .  S
C1213      C1214   1.405       .  A
C1213      H1218   1.083       .  S
C1214      C1215   1.410       .  A
C1215      C1216   1.399       .  A
C1215      O1219   1.371       .  S
C1216      H1220   1.084       .  S
O1217      H1222   0.992       .  S
O1219      H1223   0.992       .  S
C1225      C1226   1.407       .  A
C1225      C1230   1.400       .  A
C1225      H1235   1.082       .  S
C1226      C1227   1.412       .  A
C1226      C1231   1.492       .  S
C1227      C1228   1.400       .  A
C1227      O1232   1.372       .  S
C1228      C1229   1.403       .  A
C1228      H1233   1.084       .  S
C1229      C1230   1.408       .  A
C1230      O1234   1.372       .  S
C1231      C1236   1.411       .  A
C1231      C1240   1.407       .  A
O1232      H1248   0.992       .  S
O1234      H1245   0.992       .  S
C1236      C1237   1.402       .  A
C1236      O1241   1.373       .  S
C1237      C1238   1.404       .  A
C1237      H1242   1.084       .  S
C1238      C1239   1.409       .  A
C1239      C1240   1.401       .  A
C1239      O1243   1.371       .  S
C1240      H1244   1.083       .  S
O1241      H1246   0.993       .  S
O1243      H1247   0.992       .  S
C1249      C1250   1.406       .  A
C1249      C1254   1.403       .  A
C1249      H1259   1.084       .  S
C1250      C1251   1.410       .  A
C1250      C1255   1.489       .  S
C1251      C1252   1.402       .  A
C1251      O1256   1.373       .  S
C1252      C1253   1.405       .  A
C1252      H1257   1.083       .  S
C1253      C1254   1.410       .  A
C1254      O1258   1.371       .  S
C1255      C1260   1.410       .  A
C1255      C1264   1.403   1_565  A
O1256      H1272   0.992       .  S
O1258      H1269   0.992       .  S
C1260      C1261   1.402   1_565  A
C1260      O1265   1.371       .  S
C1261      C1262   1.406       .  A
C1261      H1266   1.082       .  S
C1262      C1263   1.414       .  A
C1263      C1264   1.400       .  A
C1263      O1267   1.371       .  S
C1264      H1268   1.084   1_545  S
O1265      H1270   0.992       .  S
O1267      H1271   0.992       .  S
C1273      C1274   1.403       .  A
C1273      C1278   1.402       .  A
C1273      H1283   1.084       .  S
C1274      C1275   1.409       .  A
C1274      C1279   1.485       .  S
C1275      C1276   1.402       .  A
C1275      O1280   1.373       .  S
C1276      C1277   1.405       .  A
C1276      H1281   1.083       .  S
C1277      C1278   1.411       .  A
C1278      O1282   1.372       .  S
C1279      C1284   1.408       .  A
C1279      C1288   1.403       .  A
O1280      H1296   0.992       .  S
O1282      H1293   0.992       .  S
C1284      C1285   1.400       .  A
C1284      O1289   1.371       .  S
C1285      C1286   1.406       .  A
C1285      H1290   1.082       .  S
C1286      C1287   1.413       .  A
C1287      C1288   1.402       .  A
C1287      O1291   1.372       .  S
C1288      H1292   1.084       .  S
O1289      H1294   0.992       .  S
O1291      H1295   0.992       .  S
C1297      C1298   1.405       .  A
C1297      C1302   1.401       .  A
C1297      H1307   1.083       .  S
C1298      C1299   1.412       .  A
C1298      C1303   1.490       .  S
C1299      C1300   1.402       .  A
C1299      O1304   1.372       .  S
C1300      C1301   1.403       .  A
C1300      H1305   1.083       .  S
C1301      C1302   1.410       .  A
C1302      O1306   1.371       .  S
C1303      C1308   1.412       .  A
C1303      C1312   1.404       .  A
O1304      H1320   0.992       .  S
O1306      H1317   0.992       .  S
C1308      C1309   1.404   1_655  A
C1308      O1313   1.372       .  S
C1309      C1310   1.403       .  A
C1309      H1314   1.083       .  S
C1310      C1311   1.409       .  A
C1311      C1312   1.400   1_455  A
C1311      O1315   1.372       .  S
C1312      H1316   1.083       .  S
O1313      H1318   0.992       .  S
O1315      H1319   0.992       .  S
C1321      C1322   1.404       .  A
C1321      C1326   1.404       .  A
C1321      H1331   1.083       .  S
C1322      C1323   1.407       .  A
C1322      C1327   1.482       .  S
C1323      C1324   1.399       .  A
C1323      O1328   1.372       .  S
C1324      C1325   1.404       .  A
C1324      H1329   1.083       .  S
C1325      C1326   1.410       .  A
C1326      O1330   1.371       .  S
C1327      C1332   1.407       .  A
C1327      C1336   1.401       .  A
O1328      H1344   0.992       .  S
O1330      H1341   0.992       .  S
C1332      C1333   1.399       .  A
C1332      O1337   1.371       .  S
C1333      C1334   1.407       .  A
C1333      H1338   1.082       .  S
C1334      C1335   1.414       .  A
C1335      C1336   1.404       .  A
C1335      O1339   1.372       .  S
C1336      H1340   1.084       .  S
O1337      H1342   0.992       .  S
O1339      H1343   0.992       .  S
