geometry optimzed in LAMMPS
_audit_creation_date              2020-11-30 
_audit_creation_method            'lammps2cif' 
_symmetry_space_group_name_H-M    'P1' 
_symmetry_Int_Tables_number       1 
_symmetry_cell_setting            triclinic 
loop_ 
_symmetry_equiv_pos_as_xyz 
  x,y,z 
_cell_length_a                    70.16721604 
_cell_length_b                    69.41428483589357 
_cell_length_c                    76.97976487328087 
_cell_angle_alpha                 89.62305786139346 
_cell_angle_beta                  90.15471782798294 
_cell_angle_gamma                 89.93159150239188 
loop_ 
_atom_site_label 
_atom_site_type_symbol 
_atom_site_fract_x 
_atom_site_fract_y 
_atom_site_fract_z 
_atom_site_charge 
N1          N  0.83025370  0.73294854  0.15591728    -0.27500
N2          N  0.81552952  0.74298594  0.16149198    -0.35400
C3          C  0.81301507  0.75840721  0.15106338     0.00800
C4          C  0.82700198  0.75808102  0.13842080     0.06900
C5          C  0.83766738  0.74172691  0.14190990    -0.06200
H6          H  0.80228822  0.76939595  0.15295877     0.07500
H7          H  0.84997427  0.73660048  0.13486864     0.08700
Cu8        Cu  0.80118890  0.73583599  0.18402499     0.44200
Cu9        Cu  0.83977070  0.70816340  0.16797945     0.42000
Cu10       Cu  0.81896048  0.69430798  0.20911367     0.43900
N11         N  0.79198256  0.72817801  0.20860503    -0.34900
N12         N  0.79857496  0.71347915  0.21786617    -0.29200
C13         C  0.79051607  0.71376716  0.23370106    -0.05300
C14         C  0.77832399  0.72938713  0.23436224     0.07000
C15         C  0.77955547  0.73814746  0.21825178     0.00800
H16         H  0.79365833  0.70362689  0.24405235     0.08400
H17         H  0.77245772  0.75120038  0.21399981     0.07500
N18         N  0.83959752  0.67829142  0.19658627    -0.36400
N19         N  0.84704435  0.68355983  0.18156638    -0.28500
C20         C  0.85964350  0.67023800  0.17651158    -0.03800
C21         C  0.86028247  0.65569579  0.18893465     0.04800
C22         C  0.84732880  0.66136778  0.20152936     0.02900
H23         H  0.86750525  0.67117650  0.16449016     0.08000
H24         H  0.84356139  0.65375931  0.21332445     0.06900
N25         N  0.72480175  0.74968979  0.33226538    -0.27500
N26         N  0.73777509  0.73730973  0.32678357    -0.35400
C27         C  0.74153260  0.72454133  0.33958410     0.00800
C28         C  0.73025765  0.72895770  0.35377010     0.06900
C29         C  0.71982939  0.74497954  0.34860777    -0.06200
H30         H  0.75133303  0.71257853  0.33842957     0.07500
H31         H  0.70941384  0.75274405  0.35618137     0.08700
Cu32       Cu  0.74888447  0.73743931  0.30178537     0.44200
Cu33       Cu  0.71427280  0.77264546  0.31756755     0.42000
Cu34       Cu  0.72973858  0.77492520  0.27355263     0.43900
N35         N  0.75548404  0.74015878  0.27559346    -0.34900
N36         N  0.74824951  0.75379910  0.26547277    -0.29200
C37         C  0.75512568  0.75185479  0.24934751    -0.05300
C38         C  0.76726544  0.73622216  0.24924091     0.07000
C39         C  0.76719962  0.72908091  0.26607233     0.00800
H40         H  0.75162376  0.76128147  0.23855400     0.08400
H41         H  0.77517420  0.71689416  0.27107334     0.07500
N42         N  0.71238025  0.79555259  0.28432225    -0.36400
N43         N  0.70667428  0.79487915  0.30063187    -0.28500
C44         C  0.69610726  0.81062518  0.30387451    -0.03800
C45         C  0.69510205  0.82179403  0.28882158     0.04800
C46         C  0.70562903  0.81165180  0.27670712     0.02900
H47         H  0.68969276  0.81363448  0.31631821     0.08000
H48         H  0.70855257  0.81575816  0.26340730     0.06900
C49         C  0.93774206  0.42808179  0.30294429     0.80000
N50         N  0.94734567  0.43421119  0.31716678    -0.78300
C51         C  0.95936868  0.44943790  0.31625634     0.82400
N52         N  0.96170920  0.45889999  0.30088295    -0.78300
C53         C  0.95140468  0.45347905  0.28671357     0.82500
N54         N  0.93948460  0.43807782  0.28779812    -0.80000
C55         C  0.91651444  0.55594295  0.19736117     0.80000
N56         N  0.91764075  0.54279932  0.21046383    -0.78300
C57         C  0.93111284  0.52863703  0.21019598     0.82400
N58         N  0.94385288  0.52803137  0.19686491    -0.78300
C59         C  0.94228115  0.54074921  0.18343633     0.82500
N60         N  0.92850334  0.55436300  0.18370860    -0.80000
N61         N  0.83776231  0.26362676  0.33685082    -0.27500
N62         N  0.82474627  0.25185761  0.33053471    -0.35400
C63         C  0.82085734  0.23811868  0.34235809     0.00800
C64         C  0.83205872  0.24127566  0.35688045     0.06900
C65         C  0.84261374  0.25761680  0.35290613    -0.06200
H66         H  0.81124885  0.22620239  0.34015645     0.07500
H67         H  0.85330142  0.26445616  0.36091095     0.08700
Cu68       Cu  0.81427123  0.25391412  0.30559428     0.44200
Cu69       Cu  0.84880037  0.28659729  0.32273699     0.42000
Cu70       Cu  0.83200934  0.29239580  0.27805230     0.43900
N71         N  0.80710367  0.25705405  0.27978397    -0.34900
N72         N  0.81342663  0.27106210  0.26961600    -0.29200
C73         C  0.80639348  0.26849828  0.25351679    -0.05300
C74         C  0.79522362  0.25205521  0.25365128     0.07000
C75         C  0.79598741  0.24519627  0.27049753     0.00800
H76         H  0.80940424  0.27776599  0.24251160     0.08400
H77         H  0.78913366  0.23243359  0.27564164     0.07500
N78         N  0.85138817  0.31076925  0.28994159    -0.36400
N79         N  0.85744482  0.30854304  0.30610647    -0.28500
C80         C  0.86981985  0.32268210  0.30983875    -0.03800
C81         C  0.87174211  0.33450151  0.29534412     0.04800
C82         C  0.85980290  0.32641698  0.28296665     0.02900
H83         H  0.87693353  0.32406696  0.32223997     0.08000
H84         H  0.85721141  0.33156439  0.26988398     0.06900
N85         N  0.73808351  0.23343730  0.15776684    -0.27500
N86         N  0.75103834  0.24560651  0.16360613    -0.35400
C87         C  0.75297236  0.26022076  0.15220405     0.00800
C88         C  0.74046423  0.25724160  0.13857472     0.06900
C89         C  0.73125476  0.24012411  0.14253752    -0.06200
H90         H  0.76213825  0.27255231  0.15412608     0.07500
H91         H  0.72018923  0.23317533  0.13504673     0.08700
Cu92       Cu  0.76382197  0.24296705  0.18764341     0.44200
Cu93       Cu  0.72960553  0.20881670  0.17125583     0.42000
Cu94       Cu  0.74852356  0.20258291  0.21468369     0.43900
N95         N  0.77229063  0.23892573  0.21306145    -0.34900
N96         N  0.76668829  0.22443262  0.22304732    -0.29200
C97         C  0.77416113  0.22674787  0.23901887    -0.05300
C98         C  0.78489647  0.24348422  0.23898984     0.07000
C99         C  0.78341769  0.25079612  0.22233630     0.00800
H100        H  0.77173622  0.21710077  0.24988160     0.08400
H101        H  0.78964980  0.26396430  0.21736489     0.07500
N102        N  0.72977463  0.18316130  0.20311834    -0.36400
N103        N  0.72282089  0.18552218  0.18727180    -0.28500
C104        C  0.71094522  0.17083784  0.18370965    -0.03800
C105        C  0.71033293  0.15849887  0.19798623     0.04800
C106        C  0.72253283  0.16686395  0.21002310     0.02900
H107        H  0.70337915  0.16929817  0.17154337     0.08000
H108        H  0.72571049  0.16170423  0.22299652     0.06900
C109        C  0.63839049  0.06833458  0.19655353     0.80000
N110        N  0.64132872  0.05502260  0.20941117    -0.78300
C111        C  0.63160772  0.03797046  0.20933548     0.82400
N112        N  0.61899260  0.03429679  0.19629612    -0.78300
C113        C  0.61521942  0.04794582  0.18403826     0.82500
N114        N  0.62487783  0.06483382  0.18431460    -0.80000
C115        C  0.63809179  0.92178067  0.29221260     0.80000
N116        N  0.62577096  0.92648113  0.30506807    -0.78300
C117        C  0.61524459  0.94283214  0.30426094     0.82400
N118        N  0.61763976  0.95509219  0.29061701    -0.78300
C119        C  0.63006743  0.95078440  0.27764480     0.82500
N120        N  0.63995080  0.93382563  0.27825182    -0.80000
N121        N  0.81453846  0.77638777  0.66120108    -0.27500
N122        N  0.80091878  0.76510115  0.66727673    -0.35400
C123        C  0.79616515  0.75213848  0.65516469     0.00800
C124        C  0.80746546  0.75519109  0.64073331     0.06900
C125        C  0.81896440  0.77072086  0.64501164    -0.06200
H126        H  0.78616216  0.74050114  0.65722246     0.07500
H127        H  0.83019257  0.77699066  0.63721725     0.08700
Cu128      Cu  0.79134736  0.76562774  0.69250994     0.44200
Cu129      Cu  0.82735755  0.79779082  0.67602126     0.42000
Cu130      Cu  0.81275984  0.79991988  0.72148840     0.43900
N131        N  0.78532533  0.76679735  0.71863014    -0.34900
N132        N  0.79298852  0.77943789  0.72933347    -0.29200
C133        C  0.78627005  0.77617552  0.74543076    -0.05300
C134        C  0.77391314  0.76066801  0.74474305     0.07000
C135        C  0.77366334  0.75507280  0.72757559     0.00800
H136        H  0.79031599  0.78430129  0.75680009     0.08400
H137        H  0.76571363  0.74329003  0.72197521     0.07500
N138        N  0.83239930  0.81852473  0.71025727    -0.36400
N139        N  0.83761724  0.81782313  0.69378187    -0.28500
C140        C  0.85005318  0.83214665  0.69062945    -0.03800
C141        C  0.85285552  0.84243711  0.70584343     0.04800
C142        C  0.84142418  0.83326114  0.71801001     0.02900
H143        H  0.85651116  0.83481340  0.67810779     0.08000
H144        H  0.83941308  0.83721321  0.73144549     0.06900
N145        N  0.72413804  0.73389666  0.84290794    -0.27500
N146        N  0.73632885  0.74670432  0.83675097    -0.35400
C147        C  0.73994899  0.75987782  0.84901690     0.00800
C148        C  0.72937371  0.75527951  0.86358621     0.06900
C149        C  0.71946977  0.73872968  0.85924342    -0.06200
H150        H  0.74883802  0.77243715  0.84711645     0.07500
H151        H  0.70934895  0.73097100  0.86721961     0.08700
Cu152      Cu  0.74588155  0.74698563  0.81145243     0.44200
Cu153      Cu  0.71399127  0.71096871  0.82844448     0.42000
Cu154      Cu  0.72884229  0.70922289  0.78325424     0.43900
N155        N  0.75223373  0.74550344  0.78536769    -0.34900
N156        N  0.74595628  0.73182275  0.77495504    -0.29200
C157        C  0.75260382  0.73515471  0.75884499    -0.05300
C158        C  0.76358709  0.75169339  0.75923451     0.07000
C159        C  0.76303637  0.75787755  0.77622719     0.00800
H160        H  0.74975377  0.72612565  0.74773760     0.08400
H161        H  0.76996310  0.77042410  0.78159853     0.07500
N162        N  0.71193580  0.68844469  0.79506520    -0.36400
N163        N  0.70644850  0.68917637  0.81145743    -0.28500
C164        C  0.69560433  0.67370715  0.81502077    -0.03800
C165        C  0.69416202  0.66260584  0.80015879     0.04800
C166        C  0.70476281  0.67244959  0.78777910     0.02900
H167        H  0.68943260  0.67074007  0.82761121     0.08000
H168        H  0.70697907  0.66846836  0.77437811     0.06900
C169        C  0.64864115  0.43157098  0.69928740     0.80000
N170        N  0.63817633  0.43751783  0.68545791    -0.78300
C171        C  0.62797198  0.45403916  0.68589545     0.82400
N172        N  0.62887210  0.46527230  0.70020023    -0.78300
C173        C  0.63912999  0.45949203  0.71434391     0.82500
N174        N  0.64873961  0.44239568  0.71397871    -0.80000
C175        C  0.63068646  0.56699507  0.80328416     0.80000
N176        N  0.63424421  0.55510834  0.78972961    -0.78300
C177        C  0.62672576  0.53707413  0.78932278     0.82400
N178        N  0.61553462  0.53086973  0.80262943    -0.78300
C179        C  0.61114708  0.54301323  0.81581351     0.82500
N180        N  0.61874598  0.56098302  0.81603953    -0.80000
N181        N  0.84990993  0.24075621  0.83711289    -0.27500
N182        N  0.83490971  0.25137421  0.83287229    -0.35400
C183        C  0.83128837  0.26367331  0.84593024     0.00800
C184        C  0.84478669  0.26082201  0.85889678     0.06900
C185        C  0.85632831  0.24616159  0.85281138    -0.06200
H186        H  0.82020751  0.27452019  0.84563032     0.07500
H187        H  0.86869172  0.24001484  0.85919637     0.08700
Cu188      Cu  0.82135106  0.25017790  0.80870658     0.44200
Cu189      Cu  0.86183797  0.21987377  0.82132959     0.42000
Cu190      Cu  0.84304943  0.21729233  0.77820102     0.43900
N191        N  0.81279436  0.24758628  0.78280890    -0.34900
N192        N  0.82114503  0.23574665  0.77179487    -0.29200
C193        C  0.81260071  0.23714490  0.75622051    -0.05300
C194        C  0.79807849  0.25046446  0.75739672     0.07000
C195        C  0.79858323  0.25687714  0.77442124     0.00800
H196        H  0.81647461  0.22874385  0.74497950     0.08400
H197        H  0.78918127  0.26729634  0.78033411     0.07500
N198        N  0.86386004  0.19896115  0.78737593    -0.36400
N199        N  0.87098960  0.19992727  0.80323100    -0.28500
C200        C  0.88387548  0.18575634  0.80534612    -0.03800
C201        C  0.88478316  0.17530416  0.79007234     0.04800
C202        C  0.87185202  0.18412131  0.77898406     0.02900
H203        H  0.89149642  0.18290744  0.81732429     0.08000
H204        H  0.86832567  0.18001546  0.76583369     0.06900
N205        N  0.73179076  0.25866065  0.66379810    -0.27500
N206        N  0.74671769  0.24850572  0.66902714    -0.35400
C207        C  0.75133469  0.23580995  0.65657734     0.00800
C208        C  0.73865171  0.23795856  0.64284319     0.06900
C209        C  0.72646337  0.25261921  0.64794197    -0.06200
H210        H  0.76271988  0.22535813  0.65773085     0.07500
H211        H  0.71450545  0.25845727  0.64073540     0.08700
Cu212      Cu  0.75950346  0.25157570  0.69329244     0.44200
Cu213      Cu  0.71908010  0.28011007  0.67852812     0.42000
Cu214      Cu  0.73668647  0.28473612  0.72253086     0.43900
N215        N  0.76877495  0.25653222  0.71859462    -0.34900
N216        N  0.76015684  0.26847621  0.72933512    -0.29200
C217        C  0.76934346  0.26838459  0.74468647    -0.05300
C218        C  0.78447344  0.25572358  0.74358683     0.07000
C219        C  0.78371766  0.24846946  0.72687313     0.00800
H220        H  0.76522879  0.27685507  0.75581396     0.08400
H221        H  0.79319860  0.23797030  0.72118309     0.07500
N222        N  0.71637002  0.30266136  0.71177756    -0.36400
N223        N  0.71012404  0.30131143  0.69563127    -0.28500
C224        C  0.69876946  0.31647999  0.69215879    -0.03800
C225        C  0.69788683  0.32798358  0.70684256     0.04800
C226        C  0.70917595  0.31862550  0.71902471     0.02900
H227        H  0.69221532  0.31918490  0.67965017     0.08000
H228        H  0.71289005  0.32358193  0.73188309     0.06900
C229        C  0.94882038  0.08079312  0.79210855     0.80000
N230        N  0.96073265  0.07545265  0.80514541    -0.78300
C231        C  0.96643277  0.05688445  0.80707650     0.82400
N232        N  0.96014765  0.04341810  0.79563782    -0.78300
C233        C  0.94877064  0.04873526  0.78206401     0.82500
N234        N  0.94311844  0.06740268  0.78043760    -0.80000
C235        C  0.92033866  0.93528986  0.70181682     0.80000
N236        N  0.92115239  0.94661070  0.71620758    -0.78300
C237        C  0.93321430  0.96201790  0.71657005     0.82400
N238        N  0.94511281  0.96537636  0.70294007    -0.78300
C239        C  0.94461823  0.95389771  0.68877637     0.82500
N240        N  0.93199699  0.93919357  0.68821419    -0.80000
C241        C  0.35481794  0.36641266  0.54786285     0.80000
N242        N  0.35284537  0.35357204  0.56121709    -0.78300
C243        C  0.33580936  0.34491143  0.56424554     0.82400
N244        N  0.32083445  0.34898663  0.55371311    -0.78300
C245        C  0.32268950  0.36114318  0.53999443     0.82500
N246        N  0.33973031  0.36989740  0.53708863    -0.80000
C247        C  0.21568396  0.36163806  0.45361559     0.80000
N248        N  0.23023100  0.36636299  0.46452589    -0.78300
C249        C  0.24744692  0.35742434  0.46305006     0.82400
N250        N  0.24998471  0.34366190  0.45079355    -0.78300
C251        C  0.23529120  0.33823371  0.44043663     0.82500
N252        N  0.21827768  0.34727091  0.44196989    -0.80000
N253        N  0.54748280  0.55676360  0.41319148    -0.27500
N254        N  0.53793202  0.54113717  0.41765794    -0.35400
C255        C  0.52455119  0.53766497  0.40554961     0.00800
C256        C  0.52565273  0.55194760  0.39293348     0.06900
C257        C  0.54035930  0.56382294  0.39823206    -0.06200
H258        H  0.51426257  0.52609539  0.40628381     0.07500
H259        H  0.54543674  0.57672536  0.39179696     0.08700
Cu260      Cu  0.54264124  0.52678329  0.44093435     0.44200
Cu261      Cu  0.56949206  0.56767642  0.42791879     0.42000
Cu262      Cu  0.58091903  0.54586252  0.46915304     0.43900
N263        N  0.54819177  0.51741198  0.46604688    -0.34900
N264        N  0.56184663  0.52426385  0.47617233    -0.29200
C265        C  0.56057503  0.51580192  0.49188098    -0.05300
C266        C  0.54536597  0.50316255  0.49165363     0.07000
C267        C  0.53786858  0.50449391  0.47508374     0.00800
H268        H  0.56967914  0.51911662  0.50282075     0.08400
H269        H  0.52547166  0.49709051  0.47008879     0.07500
N270        N  0.59691115  0.56802447  0.45822834    -0.36400
N271        N  0.59230610  0.57581647  0.44310358    -0.28500
C272        C  0.60512291  0.58931234  0.43891367    -0.03800
C273        C  0.61865017  0.59033096  0.45202725     0.04800
C274        C  0.61294980  0.57651192  0.46411967     0.02900
H275        H  0.60466013  0.59741595  0.42689081     0.08000
H276        H  0.61994928  0.57276293  0.47621082     0.06900
N277        N  0.53037755  0.44688880  0.58894651    -0.27500
N278        N  0.54096516  0.46130493  0.58324630    -0.35400
C279        C  0.55415042  0.46559316  0.59531914     0.00800
C280        C  0.55185190  0.45309684  0.60921907     0.06900
C281        C  0.53665363  0.44142900  0.60472553    -0.06200
H282        H  0.56531546  0.47617090  0.59362076     0.07500
H283        H  0.53091642  0.42949179  0.61214327     0.08700
Cu284      Cu  0.53830273  0.47251477  0.55846074     0.44200
Cu285      Cu  0.50845697  0.43493326  0.57458959     0.42000
Cu286      Cu  0.49841162  0.45530170  0.53209256     0.43900
N287        N  0.53410588  0.47964318  0.53264349    -0.34900
N288        N  0.51968670  0.47357019  0.52302735    -0.29200
C289        C  0.52155313  0.48080917  0.50686058    -0.05300
C290        C  0.53790308  0.49192743  0.50636416     0.07000
C291        C  0.54549302  0.49085051  0.52290129     0.00800
H292        H  0.51169385  0.47822020  0.49630513     0.08400
H293        H  0.55832259  0.49774053  0.52757862     0.07500
N294        N  0.48131508  0.43470659  0.54403560    -0.36400
N295        N  0.48559366  0.42685537  0.55924141    -0.28500
C296        C  0.47224621  0.41380565  0.56339831    -0.03800
C297        C  0.45872993  0.41341023  0.55026641     0.04800
C298        C  0.46493025  0.42693695  0.53818961     0.02900
H299        H  0.47211534  0.40567844  0.57543336     0.08000
H300        H  0.45811439  0.43081648  0.52603923     0.06900
N301        N  0.01718166  0.55716683  0.59315249    -0.27500
N302        N  0.02775254  0.54227723  0.58862243    -0.35400
C303        C  0.04147454  0.53945120  0.60059938     0.00800
C304        C  0.03961486  0.55338906  0.61325119     0.06900
C305        C  0.02405278  0.56439499  0.60808389    -0.06200
H306        H  0.05249522  0.52858908  0.59972890     0.07500
H307        H  0.01824326  0.57684091  0.61460212     0.08700
Cu308      Cu  0.02396271  0.52773629  0.56558395     0.44200
Cu309      Cu  0.99399677  0.56669367  0.57852450     0.42000
Cu310      Cu  0.98362578  0.54108998  0.53834405     0.43900
N311        N  0.01890710  0.51651377  0.54125952    -0.34900
N312        N  0.00427114  0.52126886  0.53125503    -0.29200
C313        C  0.00583456  0.51198980  0.51603883    -0.05300
C314        C  0.02226463  0.50095926  0.51656732     0.07000
C315        C  0.03017448  0.50415605  0.53272048     0.00800
H316        H  0.99603870  0.51360763  0.50524945     0.08400
H317        H  0.04341408  0.49836950  0.53776507     0.07500
N318        N  0.96624714  0.56236277  0.54854231    -0.36400
N319        N  0.97024586  0.57186480  0.56292281    -0.28500
C320        C  0.95634665  0.58476588  0.56583959    -0.03800
C321        C  0.94285324  0.58337631  0.55268716     0.04800
C322        C  0.94965643  0.56893939  0.54197295     0.02900
H323        H  0.95605825  0.59425687  0.57691557     0.08000
H324        H  0.94321123  0.56371089  0.53013318     0.06900
N325        N  0.05150723  0.45708469  0.41704088    -0.27500
N326        N  0.03633473  0.46470552  0.42443758    -0.35400
C327        C  0.02277267  0.46761833  0.41237018     0.00800
C328        C  0.02969240  0.46161569  0.39647069     0.06900
C329        C  0.04802523  0.45504670  0.39993551    -0.06200
H330        H  0.00891168  0.47373222  0.41504728     0.07500
H331        H  0.05792391  0.44878247  0.39081801     0.08700
Cu332      Cu  0.03466873  0.47086551  0.45056178     0.44200
Cu333      Cu  0.07562571  0.44922119  0.43117278     0.42000
Cu334      Cu  0.07507795  0.45905972  0.47785072     0.43900
N335        N  0.03618899  0.47732062  0.47663932    -0.34900
N336        N  0.05092461  0.47299531  0.48666490    -0.29200
C337        C  0.04792899  0.48017738  0.50259097    -0.05300
C338        C  0.03052434  0.48954452  0.50249425     0.07000
C339        C  0.02343737  0.48741199  0.48587008     0.00800
H340        H  0.05800778  0.47925547  0.51322395     0.08400
H341        H  0.01032543  0.49331775  0.48065955     0.07500
N342        N  0.09730896  0.44547813  0.46524686    -0.36400
N343        N  0.09731749  0.44173404  0.44842182    -0.28500
C344        C  0.11326772  0.43199142  0.44454015    -0.03800
C345        C  0.12389507  0.42952731  0.45959340     0.04800
C346        C  0.11336044  0.43836477  0.47246672     0.02900
H347        H  0.11677456  0.42698346  0.43166132     0.08000
H348        H  0.11675570  0.43901998  0.48616678     0.06900
C349        C  0.85456150  0.65652966  0.55456209     0.80000
N350        N  0.83994866  0.65170483  0.54373754    -0.78300
C351        C  0.82293525  0.66110844  0.54477587     0.82400
N352        N  0.82062959  0.67527598  0.55665784    -0.78300
C353        C  0.83531932  0.68074161  0.56694243     0.82500
N354        N  0.85221963  0.67137965  0.56578003    -0.80000
C355        C  0.71819742  0.64577385  0.45847821     0.80000
N356        N  0.73302441  0.64383225  0.46974886    -0.78300
C357        C  0.75022204  0.65188009  0.46604551     0.82400
N358        N  0.75258602  0.66187118  0.45094687    -0.78300
C359        C  0.73760321  0.66467648  0.44000753     0.82500
N360        N  0.72050754  0.65665365  0.44389712    -0.80000
C361        C  0.86365787  0.35124065  0.95634244     0.80000
N362        N  0.86027647  0.33857240  0.94332267    -0.78300
C363        C  0.84362449  0.32875512  0.94231688     0.82400
N364        N  0.83010833  0.33160361  0.95464549    -0.78300
C365        C  0.83355001  0.34358190  0.96823341     0.82500
N366        N  0.85034174  0.35342856  0.96901580    -0.80000
C367        C  0.71410615  0.35186580  0.04394426     0.80000
N368        N  0.72745042  0.35412637  0.03127956    -0.78300
C369        C  0.74499802  0.34593274  0.03302912     0.82400
N370        N  0.74913199  0.33546517  0.04752924    -0.78300
C371        C  0.73567099  0.33240122  0.05986136     0.82500
N372        N  0.71821222  0.34058935  0.05796364    -0.80000
N373        N  0.02287480  0.45399212  0.91760646    -0.27500
N374        N  0.03366088  0.46892886  0.92156068    -0.35400
C375        C  0.04626499  0.47193531  0.90868319     0.00800
C376        C  0.04336993  0.45812453  0.89602237     0.06900
C377        C  0.02840247  0.44699998  0.90217416    -0.06200
H378        H  0.05709503  0.48301027  0.90881122     0.07500
H379        H  0.02193642  0.43471613  0.89592030     0.08700
Cu380      Cu  0.03107152  0.48391668  0.94463985     0.44200
Cu381      Cu  0.00086584  0.44404529  0.93320814     0.42000
Cu382      Cu  0.98975628  0.47148010  0.97145361     0.43900
N383        N  0.02554750  0.49592722  0.96869819    -0.34900
N384        N  0.01047832  0.49162680  0.97826808    -0.29200
C385        C  0.01162077  0.50127787  0.99332263    -0.05300
C386        C  0.02819856  0.51208768  0.99326233     0.07000
C387        C  0.03666076  0.50837925  0.97743794     0.00800
H388        H  0.00140140  0.50002883  0.00376431     0.08400
H389        H  0.05014791  0.51388339  0.97279175     0.07500
N390        N  0.97317256  0.44847146  0.96289549    -0.36400
N391        N  0.97772261  0.43822486  0.94911696    -0.28500
C392        C  0.96473077  0.42425498  0.94693354    -0.03800
C393        C  0.95113220  0.42561908  0.95995656     0.04800
C394        C  0.95704108  0.44124961  0.96984088     0.02900
H395        H  0.96515610  0.41408208  0.93637765     0.08000
H396        H  0.95020714  0.44698755  0.98126798     0.06900
N397        N  0.04770249  0.55636197  0.09474645    -0.27500
N398        N  0.03433282  0.54739311  0.08585283    -0.35400
C399        C  0.02007375  0.54254026  0.09652805     0.00800
C400        C  0.02458845  0.54874804  0.11305901     0.06900
C401        C  0.04233390  0.55737293  0.11152048    -0.06200
H402        H  0.00726748  0.53515644  0.09245334     0.07500
H403        H  0.05035854  0.56449609  0.12162915     0.08700
Cu404      Cu  0.03568718  0.54252638  0.05956457     0.44200
Cu405      Cu  0.07135139  0.56771422  0.08240828     0.42000
Cu406      Cu  0.07603624  0.55859374  0.03491658     0.43900
N407        N  0.03931995  0.53638510  0.03368177    -0.34900
N408        N  0.05425527  0.54173163  0.02441699    -0.29200
C409        C  0.05256339  0.53424155  0.00835532    -0.05300
C410        C  0.03573133  0.52376621  0.00764252     0.07000
C411        C  0.02774967  0.52552004  0.02391085     0.00800
H412        H  0.06293505  0.53600699  0.99809716     0.08400
H413        H  0.01472907  0.51894114  0.02852812     0.07500
N414        N  0.09422665  0.57595414  0.04960019    -0.36400
N415        N  0.09224738  0.57911836  0.06643883    -0.28500
C416        C  0.10602402  0.59109521  0.07176622    -0.03800
C417        C  0.11741665  0.59581058  0.05771780     0.04800
C418        C  0.10949185  0.58587426  0.04385678     0.02900
H419        H  0.10769025  0.59570854  0.08506850     0.08000
H420        H  0.11434629  0.58588032  0.03053681     0.06900
N421        N  0.53967057  0.43424929  0.09317243    -0.27500
N422        N  0.52780620  0.44745704  0.08707664    -0.35400
C423        C  0.51451467  0.45115472  0.09922855     0.00800
C424        C  0.51813987  0.43949117  0.11356671     0.06900
C425        C  0.53420503  0.42901133  0.10920909    -0.06200
H426        H  0.50268691  0.46099663  0.09748050     0.07500
H427        H  0.54136773  0.41822150  0.11705903     0.08700
Cu428      Cu  0.52985875  0.45804883  0.06186860     0.44200
Cu429      Cu  0.56244901  0.42337698  0.07932693     0.42000
Cu430      Cu  0.56834301  0.43761991  0.03482758     0.43900
N431        N  0.53414584  0.46423399  0.03573642    -0.34900
N432        N  0.54786912  0.45690645  0.02601780    -0.29200
C433        C  0.54635718  0.46413555  0.00981556    -0.05300
C434        C  0.53095189  0.47653044  0.00933608     0.07000
C435        C  0.52352871  0.47623001  0.02594097     0.00800
H436        H  0.55582413  0.46064804  0.99921905     0.08400
H437        H  0.51137866  0.48424198  0.03064179     0.07500
N438        N  0.58702834  0.41918220  0.04757657    -0.36400
N439        N  0.58467684  0.41396727  0.06395405    -0.28500
C440        C  0.59905762  0.40231374  0.06875845    -0.03800
C441        C  0.61119468  0.40004896  0.05474113     0.04800
C442        C  0.60307395  0.41101117  0.04150549     0.02900
H443        H  0.60071318  0.39633540  0.08168235     0.08000
H444        H  0.60838865  0.41296805  0.02843898     0.06900
N445        N  0.51424743  0.53677894  0.91332003    -0.27500
N446        N  0.52687830  0.52401931  0.91893347    -0.35400
C447        C  0.54032078  0.52167856  0.90668098     0.00800
C448        C  0.53601440  0.53366786  0.89274029     0.06900
C449        C  0.51934956  0.54296364  0.89743783    -0.06200
H450        H  0.55278487  0.51262833  0.90819404     0.07500
H451        H  0.51168072  0.55380968  0.89006967     0.08700
Cu452      Cu  0.52604285  0.51162479  0.94353807     0.44200
Cu453      Cu  0.49131769  0.54654723  0.92771424     0.42000
Cu454      Cu  0.48606173  0.52701519  0.97036576     0.43900
N455        N  0.52138327  0.50216689  0.96881718    -0.34900
N456        N  0.50681461  0.50783358  0.97838859    -0.29200
C457        C  0.50797307  0.49947223  0.99412008    -0.05300
C458        C  0.52400695  0.48795788  0.99450806     0.07000
C459        C  0.53220471  0.48995096  0.97826592     0.00800
H460        H  0.49791674  0.50176453  0.00453304     0.08400
H461        H  0.54516350  0.48323112  0.97370760     0.07500
N462        N  0.46782465  0.54755584  0.96025077    -0.36400
N463        N  0.46994184  0.55499746  0.94455375    -0.28500
C464        C  0.45651868  0.56853366  0.94194982    -0.03800
C465        C  0.44532743  0.56962769  0.95674067     0.04800
C466        C  0.45292368  0.55603737  0.96805915     0.02900
H467        H  0.45504905  0.57690079  0.93011972     0.08000
H468        H  0.44831731  0.55285653  0.98116434     0.06900
C469        C  0.36425301  0.65054080  0.95954150     0.80000
N470        N  0.35073424  0.64768221  0.97193703    -0.78300
C471        C  0.33488186  0.65903624  0.97232578     0.82400
N472        N  0.33259328  0.67324081  0.96022123    -0.78300
C473        C  0.34645156  0.67672187  0.94832216     0.82500
N474        N  0.36212635  0.66532783  0.94810341    -0.80000
C475        C  0.21775720  0.64951764  0.04996764     0.80000
N476        N  0.22192555  0.65861828  0.06505898    -0.78300
C477        C  0.23913974  0.66705377  0.06759123     0.82400
N478        N  0.25244645  0.66623383  0.05477331    -0.78300
C479        C  0.24827641  0.65765079  0.03936811     0.82500
N480        N  0.23091053  0.64936099  0.03705482    -0.80000
N481        N  0.23862500  0.75569490  0.17120545    -0.27500
N482        N  0.25222483  0.74424781  0.17728356    -0.35400
C483        C  0.25417023  0.72914763  0.16653470     0.00800
C484        C  0.24092421  0.73101414  0.15328355     0.06900
C485        C  0.23130298  0.74796828  0.15667192    -0.06200
H486        H  0.26405470  0.71736215  0.16853511     0.07500
H487        H  0.21991283  0.75431830  0.14904809     0.08700
Cu488      Cu  0.26607537  0.74844090  0.20090356     0.44200
Cu489      Cu  0.23040480  0.78136929  0.18271093     0.42000
Cu490      Cu  0.25032609  0.79026778  0.22473004     0.43900
N491        N  0.27422568  0.75424595  0.22636383    -0.34900
N492        N  0.26818615  0.76952009  0.23492362    -0.29200
C493        C  0.27485656  0.76882376  0.25126527    -0.05300
C494        C  0.28562520  0.75230276  0.25317852     0.07000
C495        C  0.28498811  0.74336788  0.23713904     0.00800
H496        H  0.27176005  0.77943044  0.26109952     0.08400
H497        H  0.29146616  0.72978125  0.23367051     0.07500
N498        N  0.23159188  0.80889147  0.21268717    -0.36400
N499        N  0.22425671  0.80573297  0.19716439    -0.28500
C500        C  0.21207727  0.82007075  0.19323782    -0.03800
C501        C  0.21163825  0.83286168  0.20704883     0.04800
C502        C  0.22429818  0.82525319  0.21911183     0.02900
H503        H  0.20397600  0.82084969  0.18128936     0.08000
H504        H  0.22759360  0.83078267  0.23186865     0.06900
N505        N  0.33435928  0.74339410  0.35465614    -0.27500
N506        N  0.32057441  0.75379172  0.34750941    -0.35400
C507        C  0.31524499  0.76760676  0.35869743     0.00800
C508        C  0.32637868  0.76601393  0.37353303     0.06900
C509        C  0.33835913  0.75052525  0.37046651    -0.06200
H510        H  0.30446730  0.77838376  0.35599534     0.07500
H511        H  0.34910373  0.74473416  0.37915389     0.08700
Cu512      Cu  0.31064217  0.74961296  0.32236726     0.44200
Cu513      Cu  0.34675688  0.71953988  0.34285148     0.42000
Cu514      Cu  0.32938748  0.70824531  0.29978407     0.43900
N515        N  0.30501697  0.74370940  0.29643877    -0.34900
N516        N  0.31181836  0.72855372  0.28817984    -0.29200
C517        C  0.30595942  0.72917037  0.27152387    -0.05300
C518        C  0.29498826  0.74553999  0.26920770     0.07000
C519        C  0.29468522  0.75441021  0.28525026     0.00800
H520        H  0.30958870  0.71858639  0.26182028     0.08400
H521        H  0.28759485  0.76773292  0.28855627     0.07500
N522        N  0.34822778  0.69095003  0.31353158    -0.36400
N523        N  0.35493486  0.69511303  0.32910959    -0.28500
C524        C  0.36712514  0.68111856  0.33409816    -0.03800
C525        C  0.36813507  0.66742104  0.32101723     0.04800
C526        C  0.35589195  0.67426644  0.30820810     0.02900
H527        H  0.37459248  0.68097058  0.34640096     0.08000
H528        H  0.35290142  0.66785058  0.29574043     0.06900
C529        C  0.43324698  0.42039388  0.21368786     0.80000
N530        N  0.44479680  0.42459632  0.20012336    -0.78300
C531        C  0.45274718  0.44223889  0.19820583     0.82400
N532        N  0.44916161  0.45604032  0.21024244    -0.78300
C533        C  0.43832790  0.45177699  0.22444597     0.82500
N534        N  0.43030971  0.43396669  0.22605559    -0.80000
C535        C  0.42510769  0.56921792  0.30361311     0.80000
N536        N  0.42283994  0.55591506  0.29081958    -0.78300
C537        C  0.43347665  0.53947847  0.29085511     0.82400
N538        N  0.44646818  0.53648113  0.30371149    -0.78300
C539        C  0.44943985  0.55001691  0.31606260     0.82500
N540        N  0.43872593  0.56629890  0.31592911    -0.80000
N541        N  0.22678701  0.23522021  0.34743668    -0.27500
N542        N  0.24023449  0.24639887  0.34091164    -0.35400
C543        C  0.24358512  0.26092642  0.35197599     0.00800
C544        C  0.23141164  0.25894410  0.36600023     0.06900
C545        C  0.22093552  0.24249234  0.36267237    -0.06200
H546        H  0.25338227  0.27265117  0.34952704     0.07500
H547        H  0.20968603  0.23642621  0.37057620     0.08700
Cu548      Cu  0.25108818  0.24275323  0.31609738     0.44200
Cu549      Cu  0.21664103  0.21125150  0.33464915     0.42000
Cu550      Cu  0.23215421  0.20362135  0.28988323     0.43900
N551        N  0.25727783  0.23883251  0.28998909    -0.34900
N552        N  0.25047404  0.22471284  0.28032753    -0.29200
C553        C  0.25728803  0.22665645  0.26404719    -0.05300
C554        C  0.26885906  0.24279912  0.26349087     0.07000
C555        C  0.26846796  0.25014054  0.28014135     0.00800
H556        H  0.25407433  0.21702570  0.25344566     0.08400
H557        H  0.27586193  0.26274978  0.28483644     0.07500
N558        N  0.21382743  0.18530491  0.30331071    -0.36400
N559        N  0.20834800  0.18827570  0.31949173    -0.28500
C560        C  0.19631754  0.17425089  0.32433668    -0.03800
C561        C  0.19394880  0.16174181  0.31057092     0.04800
C562        C  0.20536919  0.16918783  0.29744843     0.02900
H563        H  0.18983369  0.17332493  0.33703993     0.08000
H564        H  0.20715345  0.16357246  0.28448176     0.06900
N565        N  0.32882534  0.26486094  0.16836739    -0.27500
N566        N  0.31643167  0.25158423  0.17332045    -0.35400
C567        C  0.31415488  0.23889297  0.16031958     0.00800
C568        C  0.32578990  0.24438110  0.14662258     0.06900
C569        C  0.33482165  0.26092658  0.15222288    -0.06200
H570        H  0.30528326  0.22618189  0.16107610     0.07500
H571        H  0.34529111  0.26935208  0.14523429     0.08700
Cu572      Cu  0.30404500  0.25066319  0.19791793     0.44200
Cu573      Cu  0.33838934  0.28718591  0.18376383     0.42000
Cu574      Cu  0.31851776  0.29000538  0.22612140     0.43900
N575        N  0.29404608  0.25423053  0.22319836    -0.34900
N576        N  0.29928401  0.26875751  0.23316666    -0.29200
C577        C  0.29086177  0.26698734  0.24872983    -0.05300
C578        C  0.27978526  0.25055425  0.24868771     0.07000
C579        C  0.28207584  0.24279509  0.23227074     0.00800
H580        H  0.29298711  0.27680347  0.25941509     0.08400
H581        H  0.27581186  0.22965814  0.22739161     0.07500
N582        N  0.33948360  0.30866088  0.21743809    -0.36400
N583        N  0.34695944  0.30741328  0.20177396    -0.28500
C584        C  0.36051458  0.32091678  0.19999227    -0.03800
C585        C  0.36166156  0.33127919  0.21531294     0.04800
C586        C  0.34801785  0.32309328  0.22606891     0.02900
H587        H  0.36871249  0.32312860  0.18827299     0.08000
H588        H  0.34465690  0.32712751  0.23925744     0.06900
C589        C  0.13847770  0.06208971  0.29908119     0.80000
N590        N  0.12563512  0.05910062  0.31199872    -0.78300
C591        C  0.11572703  0.04231123  0.31304392     0.82400
N592        N  0.11850941  0.02849485  0.30080280    -0.78300
C593        C  0.13074534  0.03170885  0.28738156     0.82500
N594        N  0.14078881  0.04839516  0.28680255    -0.80000
C595        C  0.13790910  0.92040180  0.20231521     0.80000
N596        N  0.12778257  0.92544162  0.18799018    -0.78300
C597        C  0.11821283  0.94236601  0.18706132     0.82400
N598        N  0.11901393  0.95465942  0.20073412    -0.78300
C599        C  0.12859770  0.94947341  0.21547400     0.82500
N600        N  0.13800334  0.93233561  0.21622761    -0.80000
N601        N  0.54468867  0.94918211  0.91144024    -0.27500
N602        N  0.53548749  0.96532968  0.91494828    -0.35400
C603        C  0.52266347  0.96881843  0.90229421     0.00800
C604        C  0.52368822  0.95408002  0.89028936     0.06900
C605        C  0.53778567  0.94186450  0.89656000    -0.06200
H606        H  0.51294063  0.98092519  0.90213660     0.07500
H607        H  0.54282182  0.92870551  0.89067302     0.08700
Cu608      Cu  0.53956487  0.98121649  0.93739313     0.44200
Cu609      Cu  0.56656385  0.93794572  0.92672553     0.42000
Cu610      Cu  0.57518879  0.96263814  0.96696997     0.43900
N611        N  0.54387063  0.99189794  0.96220640    -0.34900
N612        N  0.55684622  0.98490115  0.97301935    -0.29200
C613        C  0.55541427  0.99393683  0.98833722    -0.05300
C614        C  0.54077546  0.00722001  0.98715088     0.07000
C615        C  0.53376358  0.00558024  0.97040474     0.00800
H616        H  0.56407639  0.99067854  0.99962853     0.08400
H617        H  0.52189369  0.01336600  0.96473234     0.07500
N618        N  0.59202494  0.94031921  0.95818321    -0.36400
N619        N  0.58889383  0.93112162  0.94348930    -0.28500
C620        C  0.60277298  0.91799037  0.94124549    -0.03800
C621        C  0.61531314  0.91899963  0.95521332     0.04800
C622        C  0.60793209  0.93334719  0.96568072     0.02900
H623        H  0.60392775  0.90887496  0.92995947     0.08000
H624        H  0.61375023  0.93860216  0.97777250     0.06900
N625        N  0.52035598  0.06152027  0.08469825    -0.27500
N626        N  0.53295633  0.04931308  0.07834264    -0.35400
C627        C  0.54573517  0.04479133  0.09077621     0.00800
C628        C  0.54107063  0.05470611  0.10575162     0.06900
C629        C  0.52488498  0.06521867  0.10135271    -0.06200
H630        H  0.55785966  0.03541484  0.08884833     0.07500
H631        H  0.51695829  0.07487726  0.10961260     0.08700
Cu632      Cu  0.53254320  0.04002357  0.05282829     0.44200
Cu633      Cu  0.49759315  0.07236335  0.07019452     0.42000
Cu634      Cu  0.49389545  0.05718005  0.02510606     0.43900
N635        N  0.52948507  0.03279339  0.02690665    -0.34900
N636        N  0.51556762  0.03908344  0.01671804    -0.29200
C637        C  0.51761265  0.03127189  0.00086846    -0.05300
C638        C  0.53352846  0.01948346  0.00117388     0.07000
C639        C  0.54070117  0.02081253  0.01785832     0.00800
H640        H  0.50797951  0.03366931  0.99007094     0.08400
H641        H  0.55299334  0.01338763  0.02315905     0.07500
N642        N  0.47379534  0.07441284  0.03731827    -0.36400
N643        N  0.47530100  0.08011091  0.05362139    -0.28500
C644        C  0.46006633  0.09100905  0.05755587    -0.03800
C645        C  0.44828041  0.09220818  0.04308090     0.04800
C646        C  0.45749519  0.08144547  0.03050489     0.02900
H647        H  0.45764032  0.09730530  0.07017257     0.08000
H648        H  0.45282357  0.07900798  0.01730084     0.06900
C649        C  0.85473537  0.85324768  0.04690444     0.80000
N650        N  0.84238972  0.85610299  0.03344099    -0.78300
C651        C  0.82422279  0.84911030  0.03436650     0.82400
N652        N  0.81857985  0.83909576  0.04874478    -0.78300
C653        C  0.83108307  0.83564220  0.06189559     0.82500
N654        N  0.84889214  0.84296500  0.06088575    -0.80000
C655        C  0.70903361  0.85341071  0.95273336     0.80000
N656        N  0.71334370  0.84030453  0.94038393    -0.78300
C657        C  0.73077696  0.83196371  0.93973471     0.82400
N658        N  0.74419124  0.83679402  0.95168095    -0.78300
C659        C  0.73987757  0.84929390  0.96465427     0.82500
N660        N  0.72229003  0.85766446  0.96506144    -0.80000
N661        N  0.02694509  0.93746186  0.08427082    -0.27500
N662        N  0.03698681  0.95279580  0.07972525    -0.35400
C663        C  0.05027635  0.95622818  0.09193490     0.00800
C664        C  0.04878042  0.94224786  0.10471834     0.06900
C665        C  0.03385402  0.93055398  0.09941777    -0.06200
H666        H  0.06084176  0.96753509  0.09112265     0.07500
H667        H  0.02846926  0.91789462  0.10603600     0.08700
Cu668      Cu  0.03393143  0.96718053  0.05626130     0.44200
Cu669      Cu  0.00414954  0.92680692  0.06967906     0.42000
Cu670      Cu  0.99652396  0.95089483  0.02819823     0.43900
N671        N  0.03051851  0.97689407  0.03097257    -0.34900
N672        N  0.01689620  0.97069950  0.02053447    -0.29200
C673        C  0.01892537  0.97907705  0.00484516    -0.05300
C674        C  0.03458430  0.99113201  0.00549060     0.07000
C675        C  0.04158802  0.98941014  0.02224089     0.00800
H676        H  0.00972649  0.97650320  0.99380359     0.08400
H677        H  0.05395010  0.99651307  0.02764483     0.07500
N678        N  0.97798997  0.93075081  0.03858047    -0.36400
N679        N  0.98074556  0.92164381  0.05350548    -0.28500
C680        C  0.96587583  0.90979088  0.05637605    -0.03800
C681        C  0.95308442  0.91155010  0.04259016     0.04800
C682        C  0.96138110  0.92502846  0.03160684     0.02900
H683        H  0.96439334  0.90088236  0.06786309     0.08000
H684        H  0.95583780  0.93044200  0.01940280     0.06900
N685        N  0.05543827  0.05281310  0.91126783    -0.27500
N686        N  0.04387155  0.03858178  0.91562236    -0.35400
C687        C  0.03118209  0.03597235  0.90269766     0.00800
C688        C  0.03486278  0.04939090  0.88971864     0.06900
C689        C  0.05038026  0.05974891  0.89561599    -0.06200
H690        H  0.01949643  0.02583197  0.90317381     0.07500
H691        H  0.05722038  0.07182770  0.88925208     0.08700
Cu692      Cu  0.04456938  0.02533376  0.93989386     0.44200
Cu693      Cu  0.07656243  0.06357735  0.92713661     0.42000
Cu694      Cu  0.07952166  0.04518231  0.97047355     0.43900
N695        N  0.04704864  0.01697629  0.96578023    -0.34900
N696        N  0.05967048  0.02420727  0.97674764    -0.29200
C697        C  0.05722222  0.01603845  0.99245645    -0.05300
C698        C  0.04232613  0.00310899  0.99136626     0.07000
C699        C  0.03618857  0.00405043  0.97428854     0.00800
H700        H  0.06557991  0.01943769  0.00385880     0.08400
H701        H  0.02462452  0.99603793  0.96847577     0.07500
N702        N  0.09764114  0.06628073  0.96099852    -0.36400
N703        N  0.09635484  0.07306147  0.94498268    -0.28500
C704        C  0.10993370  0.08637258  0.94247141    -0.03800
C705        C  0.12042341  0.08809776  0.95766606     0.04800
C706        C  0.11218818  0.07507263  0.96914758     0.02900
H707        H  0.11219948  0.09385878  0.93028989     0.08000
H708        H  0.11640745  0.07214201  0.98242666     0.06900
C709        C  0.35444879  0.15791023  0.04858175     0.80000
N710        N  0.34163942  0.15529005  0.03545515    -0.78300
C711        C  0.32390193  0.16330752  0.03640127     0.82400
N712        N  0.31901633  0.17375082  0.05059463    -0.78300
C713        C  0.33199093  0.17718498  0.06328247     0.82500
N714        N  0.34962972  0.16935084  0.06212007    -0.80000
C715        C  0.20827823  0.16126052  0.95553762     0.80000
N716        N  0.22136741  0.15842927  0.96836917    -0.78300
C717        C  0.23809638  0.16840560  0.96829172     0.82400
N718        N  0.24166628  0.18130485  0.95527181    -0.78300
C719        C  0.22824275  0.18478370  0.94287591     0.82500
N720        N  0.21175524  0.17469062  0.94311279    -0.80000
N721        N  0.33061249  0.77630825  0.85488541    -0.27500
N722        N  0.31503081  0.76730566  0.84974089    -0.35400
C723        C  0.30983518  0.75449781  0.86199446     0.00800
C724        C  0.32290012  0.75526061  0.87546697     0.06900
C725        C  0.33591179  0.76926385  0.87050177    -0.06200
H726        H  0.29810543  0.74450934  0.86066682     0.07500
H727        H  0.34852786  0.77371026  0.87751182     0.08700
Cu728      Cu  0.30335482  0.77052168  0.82519121     0.44200
Cu729      Cu  0.34408802  0.79715742  0.83987987     0.42000
Cu730      Cu  0.32611624  0.80461699  0.79589968     0.43900
N731        N  0.29725911  0.77228079  0.79890370    -0.34900
N732        N  0.30559930  0.78452510  0.78810508    -0.29200
C733        C  0.29928053  0.78105201  0.77188068    -0.05300
C734        C  0.28644637  0.76587110  0.77253034     0.07000
C735        C  0.28551396  0.76071219  0.78988046     0.00800
H736        H  0.30397492  0.78876678  0.76041451     0.08400
H737        H  0.27722607  0.74913476  0.79552070     0.07500
N738        N  0.34711974  0.82180570  0.80736819    -0.36400
N739        N  0.35368305  0.81872284  0.82325998    -0.28500
C740        C  0.36701590  0.83196681  0.82693138    -0.03800
C741        C  0.36913670  0.84415932  0.81269905     0.04800
C742        C  0.35618281  0.83721495  0.80053443     0.02900
H743        H  0.37439090  0.83269431  0.83925347     0.08000
H744        H  0.35356087  0.84282892  0.78761206     0.06900
N745        N  0.23415926  0.74585301  0.67435023    -0.27500
N746        N  0.24895517  0.75574910  0.68008521    -0.35400
C747        C  0.25448327  0.76830859  0.66771839     0.00800
C748        C  0.24243541  0.76642570  0.65357596     0.06900
C749        C  0.22966362  0.75211382  0.65825500    -0.06200
H750        H  0.26606649  0.77845991  0.66912484     0.07500
H751        H  0.21810322  0.74650899  0.65046230     0.08700
Cu752      Cu  0.25984143  0.75295379  0.70501404     0.39400
Cu753      Cu  0.22128558  0.72392487  0.68867516     0.42000
Cu754      Cu  0.23779044  0.71760441  0.73337298     0.43900
N755        N  0.26572031  0.75073547  0.73133076    -0.34900
N756        N  0.25759381  0.73810386  0.74190005    -0.29200
C757        C  0.26382730  0.74136406  0.75821513    -0.05300
C758        C  0.27640319  0.75679326  0.75781115     0.07000
C759        C  0.27724908  0.76229953  0.74055232     0.00800
H760        H  0.25933734  0.73328319  0.76954724     0.08400
H761        H  0.28536310  0.77410682  0.73509438     0.07500
N762        N  0.21829717  0.69923287  0.72112196    -0.36400
N763        N  0.21222995  0.70169686  0.70497584    -0.28500
C764        C  0.20028731  0.68723550  0.70087480    -0.03800
C765        C  0.19869021  0.67488843  0.71506956     0.04800
C766        C  0.21035112  0.68308136  0.72766592     0.02900
H767        H  0.19372452  0.68559211  0.68824713     0.08000
H768        H  0.21307057  0.67764756  0.74063241     0.06900
C769        C  0.13569586  0.43339714  0.80219243     0.80000
N770        N  0.12361849  0.43811005  0.81523754    -0.78300
C771        C  0.11416270  0.45514633  0.81516148     0.82400
N772        N  0.11689799  0.46776081  0.80184401    -0.78300
C773        C  0.12814174  0.46286913  0.78818000     0.82500
N774        N  0.13744343  0.44559499  0.78833372    -0.80000
C775        C  0.13527922  0.57899834  0.70542850     0.80000
N776        N  0.13798848  0.56591697  0.71849604    -0.78300
C777        C  0.12952253  0.54823194  0.71787057     0.82400
N778        N  0.11831057  0.54372556  0.70402832    -0.78300
C779        C  0.11494903  0.55688926  0.69123593     0.82500
N780        N  0.12349057  0.57440312  0.69205303    -0.80000
C781        C  0.43023095  0.07426300  0.69288889     0.80000
N782        N  0.44200626  0.07115313  0.67927673    -0.78300
C783        C  0.45680556  0.05871744  0.68061252     0.82400
N784        N  0.45962921  0.04884068  0.69567943    -0.78300
C785        C  0.44713931  0.05079914  0.70906292     0.82500
N786        N  0.43257733  0.06373378  0.70771836    -0.80000
C787        C  0.43010676  0.93999281  0.79457430     0.80000
N788        N  0.44389052  0.94191526  0.80688285    -0.78300
C789        C  0.45480346  0.95801043  0.80764633     0.82400
N790        N  0.45224704  0.97214441  0.79560808    -0.78300
C791        C  0.43875328  0.97040327  0.78302821     0.82500
N792        N  0.42749626  0.95441534  0.78268945    -0.80000
N793        N  0.24305773  0.27322762  0.84105002    -0.27500
N794        N  0.25809211  0.26351235  0.83562821    -0.35400
C795        C  0.26370824  0.25119771  0.84819427     0.00800
C796        C  0.25153517  0.25309534  0.86222413     0.06900
C797        C  0.23863020  0.26725016  0.85718550    -0.06200
H798        H  0.27522190  0.24095125  0.84681835     0.07500
H799        H  0.22668650  0.27266296  0.86454856     0.08700
Cu800      Cu  0.26891276  0.26571302  0.81072356     0.44200
Cu801      Cu  0.22887260  0.29383404  0.82614829     0.42000
Cu802      Cu  0.24429122  0.29882625  0.78174393     0.43900
N803        N  0.27429741  0.26781958  0.78436786    -0.34900
N804        N  0.26520588  0.27978320  0.77377641    -0.29200
C805        C  0.27147347  0.27708279  0.75748787    -0.05300
C806        C  0.28506995  0.26266245  0.75786700     0.07000
C807        C  0.28652465  0.25710779  0.77509489     0.00800
H808        H  0.26626625  0.28483342  0.74619485     0.08400
H809        H  0.29559478  0.24595125  0.78049018     0.07500
N810        N  0.22448151  0.31691079  0.79310262    -0.36400
N811        N  0.21873101  0.31508027  0.80934510    -0.28500
C812        C  0.20643908  0.32940053  0.81290917    -0.03800
C813        C  0.20431204  0.34091671  0.79817319     0.04800
C814        C  0.21603095  0.33241223  0.78588848     0.02900
H815        H  0.19981245  0.33132455  0.82543713     0.08000
H816        H  0.21855451  0.33718967  0.77270489     0.06900
N817        N  0.33849720  0.24353876  0.66026576    -0.27500
N818        N  0.32536397  0.25544245  0.66620571    -0.35400
C819        C  0.32319311  0.27011009  0.65489457     0.00800
C820        C  0.33574880  0.26744322  0.64127724     0.06900
C821        C  0.34523436  0.25044570  0.64511772    -0.06200
H822        H  0.31385764  0.28230919  0.65688918     0.07500
H823        H  0.35640365  0.24372714  0.63761555     0.08700
Cu824      Cu  0.31303667  0.25275428  0.69050495     0.44200
Cu825      Cu  0.34746869  0.21916803  0.67359944     0.42000
Cu826      Cu  0.33218593  0.21498155  0.71829110     0.43900
N827        N  0.30642135  0.24968902  0.71657076    -0.34900
N828        N  0.31376480  0.23620213  0.72679565    -0.29200
C829        C  0.30733596  0.23874466  0.74305527    -0.05300
C830        C  0.29534622  0.25455688  0.74301578     0.07000
C831        C  0.29506405  0.26114009  0.72603361     0.00800
H832        H  0.31110860  0.22971955  0.75405070     0.08400
H833        H  0.28739379  0.27348222  0.72094577     0.07500
N834        N  0.34984285  0.19523593  0.70632567    -0.36400
N835        N  0.35519250  0.19665657  0.68992979    -0.28500
C836        C  0.36624619  0.18149361  0.68601740    -0.03800
C837        C  0.36799686  0.16990549  0.70068271     0.04800
C838        C  0.35740496  0.17915160  0.71332052     0.02900
H839        H  0.37263421  0.17925538  0.67342269     0.08000
H840        H  0.35505267  0.17444418  0.72656036     0.06900
C841        C  0.35745741  0.86498107  0.46404777     0.80000
N842        N  0.35781077  0.84922769  0.45367045    -0.78300
C843        C  0.34323835  0.83641615  0.45362674     0.82400
N844        N  0.32838991  0.83898663  0.46467687    -0.78300
C845        C  0.32799859  0.85439795  0.47552858     0.82500
N846        N  0.34240545  0.86755319  0.47494431    -0.80000
C847        C  0.21651440  0.86255536  0.55708452     0.80000
N848        N  0.21549134  0.84853396  0.56944207    -0.78300
C849        C  0.22887627  0.83450522  0.57060453     0.82400
N850        N  0.24332748  0.83425048  0.55893120    -0.78300
C851        C  0.24448116  0.84787016  0.54616427     0.82500
N852        N  0.23115486  0.86221577  0.54543123    -0.80000
C853        C  0.83101068  0.16098922  0.43118884     0.80000
N854        N  0.81731745  0.15528865  0.44253595    -0.78300
C855        C  0.82180128  0.14338470  0.45607892     0.82400
N856        N  0.83992286  0.13649653  0.45771594    -0.78300
C857        C  0.85349193  0.14145527  0.44590068     0.82500
N858        N  0.84894429  0.15398317  0.43295645    -0.80000
C859        C  0.72516131  0.14164846  0.55053295     0.80000
N860        N  0.73922225  0.13727406  0.53906744    -0.78300
C861        C  0.75656463  0.14603710  0.54022302     0.82400
N862        N  0.75982262  0.15905564  0.55308936    -0.78300
C863        C  0.74557806  0.16402354  0.56413415     0.82500
N864        N  0.72840919  0.15531227  0.56267751    -0.80000
N865        N  0.05109396  0.96506152  0.60014503    -0.27500
N866        N  0.03634521  0.97077931  0.59074139    -0.35400
C867        C  0.02098395  0.97224394  0.60100813     0.00800
C868        C  0.02625758  0.96731968  0.61780296     0.06900
C869        C  0.04552268  0.96292324  0.61679281    -0.06200
H870        H  0.00697789  0.97653172  0.59651311     0.07500
H871        H  0.05461531  0.95780280  0.62721734     0.08700
Cu872      Cu  0.03772541  0.97604991  0.56433022     0.44200
Cu873      Cu  0.07725687  0.95857179  0.58893830     0.42000
Cu874      Cu  0.08112602  0.96342287  0.54151055     0.43900
N875        N  0.04230098  0.98188867  0.53831714    -0.34900
N876        N  0.05795771  0.97724867  0.52976941    -0.29200
C877        C  0.05641412  0.98385314  0.51331368    -0.05300
C878        C  0.03904604  0.99321065  0.51157938     0.07000
C879        C  0.03050838  0.99164461  0.52766753     0.00800
H880        H  0.06738152  0.98252643  0.50354309     0.08400
H881        H  0.01688101  0.99752127  0.53151058     0.07500
N882        N  0.10161184  0.95008727  0.55723711    -0.36400
N883        N  0.10008848  0.94853573  0.57432243    -0.28500
C884        C  0.11462157  0.93781694  0.58042555    -0.03800
C885        C  0.12595611  0.93227267  0.56660943     0.04800
C886        C  0.11731475  0.94046568  0.55209813     0.02900
H887        H  0.11638004  0.93379294  0.59393304     0.08000
H888        H  0.12150324  0.93865312  0.53869333     0.06900
N889        N  0.02186936  0.05016417  0.41372860    -0.27500
N890        N  0.03314022  0.03612779  0.41929111    -0.35400
C891        C  0.04623060  0.03239186  0.40698937     0.00800
C892        C  0.04323184  0.04482301  0.39306685     0.06900
C893        C  0.02763274  0.05585862  0.39784630    -0.06200
H894        H  0.05766005  0.02202874  0.40844584     0.07500
H895        H  0.02108913  0.06740958  0.39044441     0.08700
Cu896      Cu  0.03146884  0.02419280  0.44413283     0.44200
Cu897      Cu  0.99956207  0.06158188  0.42820992     0.42000
Cu898      Cu  0.99467340  0.04421562  0.47211279     0.43900
N899        N  0.02800630  0.01663523  0.47015885    -0.34900
N900        N  0.01453103  0.02389660  0.48017504    -0.29200
C901        C  0.01624334  0.01638902  0.49623420    -0.05300
C902        C  0.03161426  0.00391514  0.49642873     0.07000
C903        C  0.03877406  0.00441599  0.47969277     0.00800
H904        H  0.00717944  0.02008902  0.50706112     0.08400
H905        H  0.05098930  0.99662742  0.47483097     0.07500
N906        N  0.97590729  0.06368143  0.46080826    -0.36400
N907        N  0.97774453  0.07017768  0.44472877    -0.28500
C908        C  0.96289040  0.08176656  0.44096891    -0.03800
C909        C  0.95102046  0.08250260  0.45533952     0.04800
C910        C  0.95980511  0.07085663  0.46768070     0.02900
H911        H  0.96051133  0.08846732  0.42842283     0.08000
H912        H  0.95472092  0.06749865  0.48060127     0.06900
N913        N  0.52410179  0.95479522  0.40526995    -0.27500
N914        N  0.53902043  0.96094412  0.41415827    -0.35400
C915        C  0.55464867  0.95972513  0.40419875     0.00800
C916        C  0.54935838  0.95276505  0.38812798     0.06900
C917        C  0.52985186  0.94981646  0.38918783    -0.06200
H918        H  0.56887092  0.96357256  0.40837731     0.07500
H919        H  0.52071249  0.94373041  0.37930776     0.08700
Cu920      Cu  0.53758649  0.97096289  0.43938239     0.44200
Cu921      Cu  0.49737079  0.95167193  0.41673549     0.42000
Cu922      Cu  0.49296949  0.96601772  0.46238534     0.43900
N923        N  0.53288972  0.98202199  0.46390985    -0.34900
N924        N  0.51661014  0.98028316  0.47238663    -0.29200
C925        C  0.51834426  0.98885965  0.48794318    -0.05300
C926        C  0.53657715  0.99633684  0.48926351     0.07000
C927        C  0.54537384  0.99178291  0.47378001     0.00800
H928        H  0.50720442  0.98945088  0.49761304     0.08400
H929        H  0.55984551  0.99511621  0.47000478     0.07500
N930        N  0.47223601  0.95065766  0.44893741    -0.36400
N931        N  0.47386068  0.94575640  0.43242517    -0.28500
C932        C  0.45904267  0.93451354  0.42809495    -0.03800
C933        C  0.44748461  0.93202615  0.44253416     0.04800
C934        C  0.45626673  0.94265368  0.45548627     0.02900
H935        H  0.45734252  0.92792951  0.41549521     0.08000
H936        H  0.45205271  0.94350808  0.46896678     0.06900
N937        N  0.55807336  0.05058583  0.58701872    -0.27500
N938        N  0.54408774  0.04074078  0.57975468    -0.35400
C939        C  0.52962661  0.03918216  0.59105095     0.00800
C940        C  0.53475322  0.04836493  0.60625968     0.06900
C941        C  0.55292976  0.05540139  0.60326225    -0.06200
H942        H  0.51644427  0.03166586  0.58842044     0.07500
H943        H  0.56165692  0.06366052  0.61210080     0.08700
Cu944      Cu  0.54514606  0.02948483  0.55496958     0.44200
Cu945      Cu  0.58322023  0.05716190  0.57417985     0.42000
Cu946      Cu  0.58874281  0.03647056  0.53107113     0.43900
N947        N  0.54920889  0.01958080  0.52996912    -0.34900
N948        N  0.56522433  0.02196450  0.52121465    -0.29200
C949        C  0.56320382  0.01411488  0.50537979    -0.05300
C950        C  0.54504178  0.00645298  0.50415368     0.07000
C951        C  0.53657457  0.01017517  0.51997472     0.00800
H952        H  0.57411659  0.01410174  0.49548005     0.08400
H953        H  0.52228560  0.00636605  0.52395620     0.07500
N954        N  0.60897654  0.05390785  0.54287922    -0.36400
N955        N  0.60670569  0.06173242  0.55835087    -0.28500
C956        C  0.62166990  0.07318440  0.56172718    -0.03800
C957        C  0.63406432  0.07255521  0.54774158     0.04800
C958        C  0.62554965  0.06008712  0.53606879     0.02900
H959        H  0.62330450  0.08140128  0.57352480     0.08000
H960        H  0.63066462  0.05627024  0.52330258     0.06900
C961        C  0.70667028  0.13126177  0.55064576    -0.05500
C962        C  0.69201556  0.13764699  0.56167770    -0.05400
C963        C  0.67494281  0.12755809  0.56302280    -0.23600
C964        C  0.67206586  0.11082426  0.55336720     0.18700
C965        C  0.68640173  0.10437479  0.54191462     0.15900
C966        C  0.70364269  0.11465930  0.54057970    -0.18600
C967        C  0.68326020  0.08763986  0.53218754    -0.20400
C968        C  0.66619034  0.07736029  0.53393570    -0.13000
C969        C  0.65202272  0.08354425  0.54553492     0.03700
C970        C  0.65508479  0.10040169  0.55512311    -0.25100
H971        H  0.69376703  0.15042580  0.56951179     0.08800
H972        H  0.66404812  0.13275953  0.57178106     0.12400
H973        H  0.71475818  0.10953645  0.53201565     0.12300
H974        H  0.69403433  0.08243700  0.52331472     0.12100
H975        H  0.66423032  0.06438933  0.52641519     0.12600
H976        H  0.64419946  0.10556399  0.56389883     0.14600
C977        C  0.87303193  0.13324013  0.44670026    -0.05500
C978        C  0.88729897  0.14047382  0.43559720    -0.05400
C979        C  0.90548213  0.13232148  0.43543537    -0.23600
C980        C  0.90982602  0.11670905  0.44634645     0.18700
C981        C  0.89580039  0.10951720  0.45783250     0.15900
C982        C  0.87750785  0.11783952  0.45797446    -0.18600
C983        C  0.90026376  0.09395191  0.46881165    -0.20400
C984        C  0.91833382  0.08544543  0.46824799    -0.13000
C985        C  0.93224607  0.09223569  0.45660683     0.03700
C986        C  0.92789591  0.10802854  0.44578306    -0.25100
H987        H  0.88439749  0.15240610  0.42684862     0.08800
H988        H  0.91608260  0.13809950  0.42661950     0.12400
H989        H  0.86671355  0.11208764  0.46660810     0.12300
H990        H  0.88972468  0.08822495  0.47771143     0.12100
H991        H  0.92123112  0.07322322  0.47665011     0.12600
H992        H  0.93854291  0.11356478  0.43689014     0.14600
C993        C  0.80763365  0.14001806  0.46994298    -0.05500
C994        C  0.78824445  0.13810410  0.46573923    -0.05400
C995        C  0.77448753  0.13704677  0.47881904    -0.23600
C996        C  0.77983808  0.13855074  0.49632885     0.18700
C997        C  0.79935583  0.14021350  0.50070713     0.15900
C998        C  0.81316446  0.14045696  0.48750309    -0.18600
C999        C  0.80464345  0.14257134  0.51814857    -0.20400
C1000       C  0.79071132  0.14410347  0.53103030    -0.13000
C1001       C  0.77127246  0.14270136  0.52680115     0.03700
C1002       C  0.76596003  0.13935766  0.50944763    -0.25100
H1003       H  0.78371855  0.13770063  0.45228167     0.08800
H1004       H  0.75960646  0.13579278  0.47520852     0.12400
H1005       H  0.82808354  0.14219510  0.49084187     0.12300
H1006       H  0.81951961  0.14390384  0.52175312     0.12100
H1007       H  0.79512387  0.14656947  0.54432466     0.12600
H1008       H  0.75099156  0.13846279  0.50601850     0.14600
C1009       C  0.20142097  0.87768723  0.55645105    -0.05500
C1010       C  0.20106303  0.89193882  0.54337299    -0.05400
C1011       C  0.18633838  0.90564307  0.54271482    -0.23600
C1012       C  0.17171311  0.90540384  0.55515638     0.18700
C1013       C  0.17217725  0.89137778  0.56852637     0.15900
C1014       C  0.18689670  0.87769938  0.56906951    -0.18600
C1015       C  0.15782842  0.89112097  0.58113871    -0.20400
C1016       C  0.14306012  0.90457642  0.58051621    -0.13000
C1017       C  0.14217059  0.91849209  0.56718839     0.03700
C1018       C  0.15660000  0.91881934  0.55447561    -0.25100
H1019       H  0.21205209  0.89239150  0.53353327     0.08800
H1020       H  0.18633015  0.91634987  0.53241116     0.12400
H1021       H  0.18690118  0.86696422  0.57935849     0.12300
H1022       H  0.15797147  0.88043855  0.59146986     0.12100
H1023       H  0.13207879  0.90378417  0.59033899     0.12600
H1024       H  0.15614745  0.92954564  0.54418994     0.14600
C1025       C  0.37298666  0.87952072  0.46265669    -0.05500
C1026       C  0.37401608  0.89535643  0.47394636    -0.05400
C1027       C  0.38869579  0.90896794  0.47232199    -0.23600
C1028       C  0.40256652  0.90707361  0.45930711     0.18700
C1029       C  0.40150407  0.89131538  0.44783159     0.15900
C1030       C  0.38691200  0.87767642  0.44963852    -0.18600
C1031       C  0.41505696  0.88938124  0.43465410    -0.20400
C1032       C  0.42965975  0.90283298  0.43286536    -0.13000
C1033       C  0.43119391  0.91847383  0.44429464     0.03700
C1034       C  0.41750027  0.92053807  0.45754406    -0.25100
H1035       H  0.36351224  0.89721040  0.48407819     0.08800
H1036       H  0.38918709  0.92097235  0.48123487     0.12400
H1037       H  0.38637350  0.86566796  0.44072163     0.12300
H1038       H  0.41442927  0.87737362  0.42574426     0.12100
H1039       H  0.44003899  0.90063342  0.42270438     0.12600
H1040       H  0.41841206  0.93257962  0.46639216     0.14600
C1041       C  0.31206544  0.85664490  0.48796331    -0.05500
C1042       C  0.30456273  0.87493350  0.49168308    -0.05400
C1043       C  0.28934238  0.87694822  0.50331000    -0.23600
C1044       C  0.28168645  0.86074306  0.51179229     0.18700
C1045       C  0.28943023  0.84234127  0.50833879     0.15900
C1046       C  0.30428588  0.84038069  0.49625831    -0.18600
C1047       C  0.28236464  0.82618934  0.51718778    -0.20400
C1048       C  0.26785320  0.82818676  0.52941754    -0.13000
C1049       C  0.25976014  0.84631547  0.53287370     0.03700
C1050       C  0.26666385  0.86259171  0.52384042    -0.25100
H1051       H  0.31030287  0.88765184  0.48538315     0.08800
H1052       H  0.28369900  0.89119624  0.50580196     0.12400
H1053       H  0.31012128  0.82623017  0.49361435     0.12300
H1054       H  0.28819107  0.81199459  0.51477456     0.12100
H1055       H  0.26281250  0.81539745  0.53609200     0.12600
H1056       H  0.26070943  0.87668060  0.52649410     0.14600
C1057       C  0.52306312  0.05025107  0.62209384    -0.05500
C1058       C  0.53160561  0.05156175  0.63857095    -0.05400
C1059       C  0.52036753  0.05269998  0.65353065    -0.23600
C1060       C  0.50041807  0.05292980  0.65219403     0.18700
C1061       C  0.49178050  0.05206756  0.63559047     0.15900
C1062       C  0.50312006  0.05051301  0.62073195    -0.18600
C1063       C  0.47191904  0.05299336  0.63405938    -0.20400
C1064       C  0.46067145  0.05498392  0.64882092    -0.13000
C1065       C  0.46903219  0.05560707  0.66539258     0.03700
C1066       C  0.48893303  0.05433892  0.66707636    -0.25100
H1067       H  0.54696849  0.05132334  0.63991055     0.08800
H1068       H  0.52726729  0.05348413  0.66611426     0.12400
H1069       H  0.49639226  0.04985145  0.60805832     0.12300
H1070       H  0.46509386  0.05244382  0.62142743     0.12100
H1071       H  0.44534469  0.05597315  0.64730505     0.12600
H1072       H  0.49543820  0.05512270  0.67984362     0.14600
C1073       C  0.41642260  0.09033201  0.69179958    -0.05500
C1074       C  0.41094484  0.09754232  0.67540608    -0.05400
C1075       C  0.39994887  0.11420779  0.67395971    -0.23600
C1076       C  0.39432183  0.12408985  0.68887991     0.18700
C1077       C  0.39925036  0.11672521  0.70545965     0.15900
C1078       C  0.41010966  0.09975562  0.70683428    -0.18600
C1079       C  0.39364627  0.12675695  0.72034211    -0.20400
C1080       C  0.38343510  0.14399761  0.71880514    -0.13000
C1081       C  0.37863760  0.15152807  0.70235551     0.03700
C1082       C  0.38408004  0.14136536  0.68744175    -0.25100
H1083       H  0.41550908  0.09048704  0.66361502     0.08800
H1084       H  0.39620287  0.11959259  0.66115124     0.12400
H1085       H  0.41434263  0.09441553  0.71953568     0.12300
H1086       H  0.39733156  0.12138466  0.73316622     0.12100
H1087       H  0.37955199  0.15154369  0.73052995     0.12600
H1088       H  0.38032378  0.14679922  0.67466488     0.14600
C1089       C  0.44848610  0.03765372  0.72417279    -0.05500
C1090       C  0.46642289  0.03220695  0.73066868    -0.05400
C1091       C  0.46795350  0.01861269  0.74406275    -0.23600
C1092       C  0.45158027  0.00978246  0.75081613     0.18700
C1093       C  0.43343560  0.01507583  0.74431794     0.15900
C1094       C  0.43197708  0.02932014  0.73130260    -0.18600
C1095       C  0.41715154  0.00558893  0.75057950    -0.20400
C1096       C  0.41886068  0.99082528  0.76297843    -0.13000
C1097       C  0.43680943  0.98570003  0.76967566     0.03700
C1098       C  0.45309921  0.99541880  0.76366111    -0.25100
H1099       H  0.47928854  0.03844332  0.72530260     0.08800
H1100       H  0.48197175  0.01465742  0.74883971     0.12400
H1101       H  0.41810175  0.03323285  0.72613790     0.12300
H1102       H  0.40313488  0.00937674  0.74569387     0.12100
H1103       H  0.40613266  0.98359248  0.76753349     0.12600
H1104       H  0.46703129  0.99141582  0.76864494     0.14600
C1105       C  0.14753870  0.41567432  0.80385922    -0.05500
C1106       C  0.14824051  0.40566219  0.81983622    -0.05400
C1107       C  0.15956040  0.38925747  0.82190607    -0.23600
C1108       C  0.17036945  0.38234993  0.80801507     0.18700
C1109       C  0.16977306  0.39213432  0.79186454     0.15900
C1110       C  0.15842738  0.40876465  0.78988256    -0.18600
C1111       C  0.18053928  0.38508682  0.77797980    -0.20400
C1112       C  0.19172382  0.36852730  0.78004916    -0.13000
C1113       C  0.19245263  0.35862271  0.79606997     0.03700
C1114       C  0.18169446  0.36577470  0.81003387    -0.25100
H1115       H  0.14014863  0.41060083  0.83090800     0.08800
H1116       H  0.15983653  0.38196347  0.83439547     0.12400
H1117       H  0.15804592  0.41624641  0.77748408     0.12300
H1118       H  0.18028204  0.39235434  0.76548079     0.12100
H1119       H  0.19974341  0.36353946  0.76898514     0.12600
H1120       H  0.18198908  0.35849818  0.82250509     0.14600
C1121       C  0.12954905  0.47606028  0.77306362    -0.05500
C1122       C  0.12772972  0.46899836  0.75609163    -0.05400
C1123       C  0.12744314  0.48167669  0.74185293    -0.23600
C1124       C  0.12945978  0.50160552  0.74433080     0.18700
C1125       C  0.13205802  0.50874674  0.76132738     0.15900
C1126       C  0.13176398  0.49597532  0.77558925    -0.18600
C1127       C  0.13475228  0.52856621  0.76377955    -0.20400
C1128       C  0.13453257  0.54126559  0.74958585    -0.13000
C1129       C  0.13123409  0.53447612  0.73268245     0.03700
C1130       C  0.12879775  0.51452728  0.73015670    -0.25100
H1131       H  0.12590692  0.45371166  0.75389934     0.08800
H1132       H  0.12555130  0.47590727  0.72891923     0.12400
H1133       H  0.13331580  0.50149333  0.78866236     0.12300
H1134       H  0.13691260  0.53427555  0.77670168     0.12100
H1135       H  0.13639592  0.55651810  0.75191258     0.12600
H1136       H  0.12643126  0.50906043  0.71716957     0.14600
C1137       C  0.24294806  0.77766995  0.63722029    -0.05500
C1138       C  0.26049722  0.78247307  0.62963236    -0.05400
C1139       C  0.26117226  0.79345500  0.61435901    -0.23600
C1140       C  0.24430414  0.80033336  0.60671054     0.18700
C1141       C  0.22655784  0.79572237  0.61435970     0.15900
C1142       C  0.22597499  0.78409606  0.62937178    -0.18600
C1143       C  0.20974920  0.80325430  0.60712960    -0.20400
C1144       C  0.21054256  0.81561958  0.59274207    -0.13000
C1145       C  0.22809965  0.82031819  0.58504151     0.03700
C1146       C  0.24492692  0.81225472  0.59189025    -0.25100
H1147       H  0.27371704  0.77757713  0.63547345     0.08800
H1148       H  0.27490173  0.79689957  0.60873495     0.12400
H1149       H  0.21239521  0.78063508  0.63530376     0.12300
H1150       H  0.19602886  0.79994408  0.61283846     0.12100
H1151       H  0.19738273  0.82160310  0.58765893     0.12600
H1152       H  0.25856065  0.81594828  0.58618091     0.14600
C1153       C  0.18779415  0.65643005  0.71615689    -0.05500
C1154       C  0.19137480  0.64312897  0.72966487    -0.05400
C1155       C  0.18169249  0.62551047  0.73045526    -0.23600
C1156       C  0.16813461  0.62074938  0.71777783     0.18700
C1157       C  0.16420046  0.63404837  0.70425643     0.15900
C1158       C  0.17399721  0.65173971  0.70352751    -0.18600
C1159       C  0.15062482  0.62936745  0.69159229    -0.20400
C1160       C  0.14122012  0.61162812  0.69216665    -0.13000
C1161       C  0.14509838  0.59808031  0.70543591     0.03700
C1162       C  0.15857156  0.60288473  0.71831521    -0.25100
H1163       H  0.20192170  0.64613263  0.73954858     0.08800
H1164       H  0.18493228  0.61553377  0.74093996     0.12400
H1165       H  0.17082756  0.66179594  0.69309982     0.12300
H1166       H  0.14735600  0.63938340  0.68114275     0.12100
H1167       H  0.13091831  0.60851832  0.68207350     0.12600
H1168       H  0.16177760  0.59269704  0.72864669     0.14600
C1169       C  0.38235864  0.86091561  0.81114089    -0.05500
C1170       C  0.39645605  0.86394319  0.82388681    -0.05400
C1171       C  0.40873904  0.87970825  0.82287729    -0.23600
C1172       C  0.40724109  0.89290429  0.80911237     0.18700
C1173       C  0.39333724  0.89007956  0.79608664     0.15900
C1174       C  0.38101392  0.87408227  0.79713944    -0.18600
C1175       C  0.39191024  0.90343919  0.78235798    -0.20400
C1176       C  0.40392362  0.91956115  0.78171786    -0.13000
C1177       C  0.41767563  0.92260902  0.79474890     0.03700
C1178       C  0.41931890  0.90898763  0.80832135    -0.25100
H1179       H  0.39815860  0.85410891  0.83472427     0.08800
H1180       H  0.41937123  0.88162816  0.83295511     0.12400
H1181       H  0.37026647  0.87210989  0.78719537     0.12300
H1182       H  0.38138179  0.90152321  0.77219643     0.12100
H1183       H  0.40235438  0.92969623  0.77105724     0.12600
H1184       H  0.42982122  0.91099572  0.81849897     0.14600
C1185       C  0.25114861  0.24110715  0.87823851    -0.05500
C1186       C  0.26733866  0.23064805  0.88360670    -0.05400
C1187       C  0.26656978  0.21837129  0.89808940    -0.23600
C1188       C  0.24950739  0.21612776  0.90732724     0.18700
C1189       C  0.23323407  0.22677779  0.90212047     0.15900
C1190       C  0.23422945  0.23933001  0.88781922    -0.18600
C1191       C  0.21599422  0.22425395  0.91093606    -0.20400
C1192       C  0.21468739  0.21085190  0.92442393    -0.13000
C1193       C  0.23066440  0.20002606  0.92963659     0.03700
C1194       C  0.24821387  0.20300694  0.92130069    -0.25100
H1195       H  0.28061648  0.23187568  0.87656717     0.08800
H1196       H  0.27920090  0.21035428  0.90184407     0.12400
H1197       H  0.22155195  0.24708155  0.88377199     0.12300
H1198       H  0.20339135  0.23228593  0.90711609     0.12100
H1199       H  0.20105456  0.20881502  0.93074629     0.12600
H1200       H  0.26052981  0.19453138  0.92514209     0.14600
C1201       C  0.25182486  0.16601986  0.98276411    -0.05500
C1202       C  0.24522846  0.16300041  0.99978050    -0.05400
C1203       C  0.25805711  0.16153717  0.01365800    -0.23600
C1204       C  0.27774542  0.16260844  0.01070262     0.18700
C1205       C  0.28456673  0.16497337  0.99355504     0.15900
C1206       C  0.27155413  0.16701078  0.97973387    -0.18600
C1207       C  0.30428743  0.16534636  0.99056240    -0.20400
C1208       C  0.31712732  0.16383601  0.00445620    -0.13000
C1209       C  0.31046622  0.16235763  0.02159477     0.03700
C1210       C  0.29071927  0.16157909  0.02461115    -0.25100
H1211       H  0.23008767  0.16224127  0.00240357     0.08800
H1212       H  0.25257827  0.15961195  0.02670097     0.12400
H1213       H  0.27675372  0.16913182  0.96661012     0.12300
H1214       H  0.30978080  0.16700090  0.97749755     0.12100
H1215       H  0.33227236  0.16460353  0.00186516     0.12600
H1216       H  0.28547183  0.16030956  0.03780644     0.14600
C1217       C  0.19048954  0.14975896  0.95458808    -0.05500
C1218       C  0.17711118  0.15373141  0.94136142    -0.05400
C1219       C  0.16060903  0.14276794  0.93971197    -0.23600
C1220       C  0.15708342  0.12753461  0.95122465     0.18700
C1221       C  0.17018578  0.12345924  0.96473658     0.15900
C1222       C  0.18682324  0.13461363  0.96636637    -0.18600
C1223       C  0.16646768  0.10817108  0.97623903    -0.20400
C1224       C  0.15011581  0.09687035  0.97417373    -0.13000
C1225       C  0.13721929  0.10062290  0.96054400     0.03700
C1226       C  0.14074012  0.11619206  0.94926107    -0.25100
H1227       H  0.17940625  0.16530310  0.93210461     0.08800
H1228       H  0.15068014  0.14611082  0.92930852     0.12400
H1229       H  0.19695393  0.13135018  0.97662588     0.12300
H1230       H  0.17630283  0.10481475  0.98670621     0.12100
H1231       H  0.14782468  0.08494300  0.98303992     0.12600
H1232       H  0.13081779  0.11952737  0.93886600     0.14600
C1233       C  0.87438850  0.86119282  0.04694036    -0.05500
C1234       C  0.88728219  0.85521346  0.05998539    -0.05400
C1235       C  0.90530296  0.86347029  0.06137728    -0.23600
C1236       C  0.91091704  0.87794930  0.04977654     0.18700
C1237       C  0.89841395  0.88374966  0.03628028     0.15900
C1238       C  0.88024539  0.87525758  0.03485365    -0.18600
C1239       C  0.90418421  0.89824132  0.02469742    -0.20400
C1240       C  0.92194926  0.90712155  0.02666696    -0.13000
C1241       C  0.93439857  0.90169100  0.04024622     0.03700
C1242       C  0.92874387  0.88687952  0.05165431    -0.25100
H1243       H  0.88337733  0.84425491  0.06939394     0.08800
H1244       H  0.91473654  0.85872903  0.07172857     0.12400
H1245       H  0.87053553  0.87999842  0.02471600     0.12300
H1246       H  0.89486260  0.90289666  0.01423506     0.12100
H1247       H  0.92573170  0.91843986  0.01760971     0.12600
H1248       H  0.93810090  0.88229090  0.06209374     0.14600
C1249       C  0.81112563  0.85080505  0.01933236    -0.05500
C1250       C  0.81813957  0.84953625  0.00230602    -0.05400
C1251       C  0.80562659  0.84940507  0.98812081    -0.23600
C1252       C  0.78589560  0.85095004  0.99070532     0.18700
C1253       C  0.77876111  0.85306311  0.00774664     0.15900
C1254       C  0.79138405  0.85269047  0.02195201    -0.18600
C1255       C  0.75909656  0.85525661  0.01029913    -0.20400
C1256       C  0.74655708  0.85485332  0.99616038    -0.13000
C1257       C  0.75340064  0.85186092  0.97925327     0.03700
C1258       C  0.77316058  0.85012549  0.97659493    -0.25100
H1259       H  0.83328254  0.84798333  0.00000155     0.08800
H1260       H  0.81136929  0.84790446  0.97514752     0.12400
H1261       H  0.78586810  0.85384303  0.03504956     0.12300
H1262       H  0.75338799  0.85705012  0.02325362     0.12100
H1263       H  0.73140666  0.85616347  0.99854264     0.12600
H1264       H  0.77859483  0.84800212  0.96357419     0.14600
C1265       C  0.37319822  0.14785672  0.04888603    -0.05500
C1266       C  0.38682461  0.15281736  0.06156193    -0.05400
C1267       C  0.40411012  0.14296423  0.06284616    -0.23600
C1268       C  0.40824015  0.12788273  0.05148676     0.18700
C1269       C  0.39487226  0.12281541  0.03853073     0.15900
C1270       C  0.37743446  0.13284984  0.03727200    -0.18600
C1271       C  0.39918340  0.10772728  0.02714806    -0.20400
C1272       C  0.41654433  0.09784085  0.02856771    -0.13000
C1273       C  0.42988430  0.10273006  0.04148243     0.03700
C1274       C  0.42554551  0.11781069  0.05291822    -0.25100
H1275       H  0.38411154  0.16431875  0.07066598     0.08800
H1276       H  0.41421709  0.14709214  0.07281646     0.12400
H1277       H  0.36710821  0.12877414  0.02747191     0.12300
H1278       H  0.38913234  0.10356013  0.01714986     0.12100
H1279       H  0.41940200  0.08619720  0.01966183     0.12600
H1280       H  0.43571861  0.12192949  0.06282669     0.14600
C1281       C  0.51187998  0.95165825  0.87448539    -0.05500
C1282       C  0.50817106  0.93317007  0.86797689    -0.05400
C1283       C  0.49646642  0.93074982  0.85344079    -0.23600
C1284       C  0.48846923  0.94680083  0.84500543     0.18700
C1285       C  0.49255550  0.96550271  0.85112769     0.15900
C1286       C  0.50406731  0.96779962  0.86591925    -0.18600
C1287       C  0.48496048  0.98157446  0.84240266    -0.20400
C1288       C  0.47312780  0.97913473  0.82794745    -0.13000
C1289       C  0.46844290  0.96057907  0.82212884     0.03700
C1290       C  0.47631735  0.94445558  0.83066298    -0.25100
H1291       H  0.51396268  0.92051094  0.87436988     0.08800
H1292       H  0.49357203  0.91631309  0.84886735     0.12400
H1293       H  0.50706374  0.98214832  0.87066401     0.12300
H1294       H  0.48804043  0.99602421  0.84684105     0.12100
H1295       H  0.46720774  0.99177699  0.82161142     0.12600
H1296       H  0.47296552  0.93008217  0.82615859     0.14600
C1297       C  0.69006665  0.86289971  0.95237420    -0.05500
C1298       C  0.67590270  0.85622974  0.94089621    -0.05400
C1299       C  0.65830419  0.86548683  0.93963220    -0.23600
C1300       C  0.65447793  0.88170231  0.94974392     0.18700
C1301       C  0.66838841  0.88838561  0.96157074     0.15900
C1302       C  0.68606904  0.87890248  0.96288439    -0.18600
C1303       C  0.66446872  0.90464043  0.97165438    -0.20400
C1304       C  0.64711992  0.91438173  0.96979011    -0.13000
C1305       C  0.63331989  0.90806973  0.95780710     0.03700
C1306       C  0.63707319  0.89150260  0.94798690    -0.25100
H1307       H  0.67843553  0.84386473  0.93271215     0.08800
H1308       H  0.64778066  0.86010535  0.93055356     0.12400
H1309       H  0.69680312  0.88423581  0.97178308     0.12300
H1310       H  0.67492305  0.90999171  0.98081029     0.12100
H1311       H  0.64475419  0.92711472  0.97751484     0.12600
H1312       H  0.62654751  0.88624594  0.93886622     0.14600
C1313       C  0.10580016  0.94617516  0.17183602    -0.05500
C1314       C  0.10106559  0.96500335  0.16658634    -0.05400
C1315       C  0.08931573  0.96813668  0.15206405    -0.23600
C1316       C  0.08179385  0.95246386  0.14282595     0.18700
C1317       C  0.08636004  0.93350833  0.14819321     0.15900
C1318       C  0.09850054  0.93052364  0.16241493    -0.18600
C1319       C  0.07848858  0.91776441  0.13942884    -0.20400
C1320       C  0.06601757  0.92072011  0.12552264    -0.13000
C1321       C  0.06154137  0.93944056  0.11985255     0.03700
C1322       C  0.06961757  0.95532124  0.12847417    -0.25100
H1323       H  0.10660393  0.97726934  0.17359594     0.08800
H1324       H  0.08594779  0.98278197  0.14817799     0.12400
H1325       H  0.10187457  0.91590183  0.16641478     0.12300
H1326       H  0.08185034  0.90314844  0.14342443     0.12100
H1327       H  0.06014347  0.90830964  0.11896110     0.12600
H1328       H  0.06612869  0.96982850  0.12423911     0.14600
C1329       C  0.05522551  0.04711541  0.37731906    -0.05500
C1330       C  0.05670339  0.06518156  0.36907618    -0.05400
C1331       C  0.06875074  0.06778908  0.35481789    -0.23600
C1332       C  0.07932849  0.05229366  0.34831116     0.18700
C1333       C  0.07749310  0.03389178  0.35609451     0.15900
C1334       C  0.06564179  0.03146956  0.37067600    -0.18600
C1335       C  0.08762087  0.01827166  0.34918554    -0.20400
C1336       C  0.09964352  0.02090520  0.33487415    -0.13000
C1337       C  0.10208285  0.03927076  0.32745614     0.03700
C1338       C  0.09178901  0.05491545  0.33422455    -0.25100
H1339       H  0.04893404  0.07748772  0.37394804     0.08800
H1340       H  0.06987751  0.08196946  0.34894322     0.12400
H1341       H  0.06443485  0.01740746  0.37677155     0.12300
H1342       H  0.08630603  0.00402829  0.35489321     0.12100
H1343       H  0.10745235  0.00866841  0.32989233     0.12600
H1344       H  0.09340316  0.06911088  0.32845427     0.14600
C1345       C  0.12837823  0.96209815  0.23075180    -0.05500
C1346       C  0.12317257  0.95476831  0.24710312    -0.05400
C1347       C  0.12246755  0.96686453  0.26156447    -0.23600
C1348       C  0.12745501  0.98636531  0.25994812     0.18700
C1349       C  0.13337208  0.99360695  0.24359979     0.15900
C1350       C  0.13346420  0.98152234  0.22906120    -0.18600
C1351       C  0.13907987  0.01283508  0.24203278    -0.20400
C1352       C  0.13857060  0.02493655  0.25640433    -0.13000
C1353       C  0.13204307  0.01818334  0.27260999     0.03700
C1354       C  0.12659756  0.99876502  0.27432328    -0.25100
H1355       H  0.11926462  0.93975576  0.24858568     0.08800
H1356       H  0.11804751  0.96097804  0.27398409     0.12400
H1357       H  0.13775203  0.98711732  0.21647900     0.12300
H1358       H  0.14384694  0.01856218  0.22965800     0.12100
H1359       H  0.14289055  0.03979715  0.25467805     0.12600
H1360       H  0.12179936  0.99331082  0.28679134     0.14600
C1361       C  0.32721063  0.18950704  0.07818034    -0.05500
C1362       C  0.30891177  0.18909464  0.08549980    -0.05400
C1363       C  0.30485228  0.19987571  0.10033605    -0.23600
C1364       C  0.31893531  0.21153509  0.10783917     0.18700
C1365       C  0.33715397  0.21259735  0.10008925     0.15900
C1366       C  0.34123133  0.20141765  0.08546591    -0.18600
C1367       C  0.35107343  0.22467511  0.10719364    -0.20400
C1368       C  0.34714483  0.23531948  0.12207438    -0.13000
C1369       C  0.32932912  0.23387608  0.13028088     0.03700
C1370       C  0.31520215  0.22202600  0.12300937    -0.25100
H1371       H  0.29792270  0.17999510  0.08003791     0.08800
H1372       H  0.29076167  0.19899023  0.10600553     0.12400
H1373       H  0.35531367  0.20200454  0.07971364     0.12300
H1374       H  0.36506249  0.22575630  0.10133795     0.12100
H1375       H  0.35829718  0.24426537  0.12744279     0.12600
H1376       H  0.30132742  0.22102741  0.12910079     0.14600
C1377       C  0.15004327  0.07995064  0.29842794    -0.05500
C1378       C  0.16428460  0.08235565  0.28573683    -0.05400
C1379       C  0.17552514  0.09896354  0.28533816    -0.23600
C1380       C  0.17275452  0.11350208  0.29762276     0.18700
C1381       C  0.15837912  0.11130964  0.31031178     0.15900
C1382       C  0.14713157  0.09462985  0.31062064    -0.18600
C1383       C  0.15556626  0.12577349  0.32261568    -0.20400
C1384       C  0.16704781  0.14215167  0.32254042    -0.13000
C1385       C  0.18156569  0.14446086  0.31013489     0.03700
C1386       C  0.18421580  0.13009157  0.29756215    -0.25100
H1387       H  0.16688118  0.07132264  0.27614804     0.08800
H1388       H  0.18645803  0.10037025  0.27549675     0.12400
H1389       H  0.13620274  0.09306782  0.32045399     0.12300
H1390       H  0.14454296  0.12438058  0.33237574     0.12100
H1391       H  0.16440816  0.15305784  0.33221233     0.12600
H1392       H  0.19537899  0.13158990  0.28795676     0.14600
C1393       C  0.42314604  0.40160998  0.21396764    -0.05500
C1394       C  0.42821142  0.38740610  0.20183761    -0.05400
C1395       C  0.41778581  0.37043320  0.20044103    -0.23600
C1396       C  0.40198869  0.36725834  0.21110152     0.18700
C1397       C  0.39709748  0.38096458  0.22384460     0.15900
C1398       C  0.40778795  0.39805124  0.22529093    -0.18600
C1399       C  0.38125363  0.37754886  0.23451468    -0.20400
C1400       C  0.37000360  0.36111171  0.23211116    -0.13000
C1401       C  0.37438453  0.34782229  0.21898664     0.03700
C1402       C  0.39071883  0.35081914  0.20882871    -0.25100
H1403       H  0.44007767  0.38954455  0.19307181     0.08800
H1404       H  0.42181736  0.35999284  0.19070539     0.12400
H1405       H  0.40372155  0.40879996  0.23473698     0.12300
H1406       H  0.37730020  0.38779774  0.24443375     0.12100
H1407       H  0.35753954  0.35915546  0.24017732     0.12600
H1408       H  0.39456251  0.34052571  0.19891645     0.14600
C1409       C  0.43186200  0.52533232  0.27661309    -0.05500
C1410       C  0.42811080  0.53143147  0.25950593    -0.05400
C1411       C  0.42852103  0.51826273  0.24580097    -0.23600
C1412       C  0.43228687  0.49869243  0.24902784     0.18700
C1413       C  0.43516292  0.49229305  0.26631721     0.15900
C1414       C  0.43519060  0.50566499  0.27993394    -0.18600
C1415       C  0.43818279  0.47264560  0.26967984    -0.20400
C1416       C  0.43866504  0.45948360  0.25602863    -0.13000
C1417       C  0.43662168  0.46577173  0.23874937     0.03700
C1418       C  0.43338273  0.48542843  0.23530471    -0.25100
H1419       H  0.42554744  0.54651332  0.25664907     0.08800
H1420       H  0.42608751  0.52341720  0.23266503     0.12400
H1421       H  0.43787529  0.50078605  0.29312765     0.12300
H1422       H  0.44026413  0.46746715  0.28285973     0.12100
H1423       H  0.44119067  0.44440282  0.25893402     0.12600
H1424       H  0.43157596  0.49032353  0.22199748     0.14600
C1425       C  0.32607802  0.77860288  0.38900150    -0.05500
C1426       C  0.30900947  0.78726317  0.39442618    -0.05400
C1427       C  0.30873320  0.79932297  0.40892141    -0.23600
C1428       C  0.32562430  0.80332107  0.41799507     0.18700
C1429       C  0.34291361  0.79484737  0.41250826     0.15900
C1430       C  0.34296776  0.78230778  0.39825233    -0.18600
C1431       C  0.35993924  0.79944020  0.42110323    -0.20400
C1432       C  0.35991766  0.81265885  0.43472364    -0.13000
C1433       C  0.34282194  0.82112868  0.44032529     0.03700
C1434       C  0.32563098  0.81609408  0.43210795    -0.25100
H1435       H  0.29581573  0.78454547  0.38754191     0.08800
H1436       H  0.29536358  0.80575872  0.41286474     0.12400
H1437       H  0.35626141  0.77592609  0.39402147     0.12300
H1438       H  0.37333544  0.79316394  0.41702662     0.12100
H1439       H  0.37332377  0.81638838  0.44084175     0.12600
H1440       H  0.31242310  0.82281527  0.43614245     0.14600
C1441       C  0.37999352  0.64961673  0.32051413    -0.05500
C1442       C  0.39422484  0.64625784  0.33308886    -0.05400
C1443       C  0.40574648  0.62982876  0.33233936    -0.23600
C1444       C  0.40330027  0.61639322  0.31899251     0.18700
C1445       C  0.38893818  0.61943393  0.30639957     0.15900
C1446       C  0.37737994  0.63594296  0.30725702    -0.18600
C1447       C  0.38645387  0.60596367  0.29307573    -0.20400
C1448       C  0.39819451  0.58970143  0.29213937    -0.13000
C1449       C  0.41265707  0.58654920  0.30451911     0.03700
C1450       C  0.41503166  0.60002584  0.31799043    -0.25100
H1451       H  0.39670200  0.65642620  0.34343264     0.08800
H1452       H  0.41667965  0.62771224  0.34213866     0.12400
H1453       H  0.36639494  0.63804920  0.29753487     0.12300
H1454       H  0.37546793  0.60804076  0.28332073     0.12100
H1455       H  0.39592962  0.57959891  0.28168045     0.12600
H1456       H  0.42603416  0.59785794  0.32771958     0.14600
C1457       C  0.14921827  0.90241288  0.20214696    -0.05500
C1458       C  0.14575664  0.88870035  0.18914084    -0.05400
C1459       C  0.15713295  0.87235362  0.18775763    -0.23600
C1460       C  0.17227846  0.86938870  0.19930782     0.18700
C1461       C  0.17574293  0.88279873  0.21268612     0.15900
C1462       C  0.16408867  0.89919867  0.21412217    -0.18600
C1463       C  0.19099442  0.87968576  0.22417133    -0.20400
C1464       C  0.20272614  0.86351709  0.22232596    -0.13000
C1465       C  0.19940863  0.85015471  0.20897362     0.03700
C1466       C  0.18406163  0.85324719  0.19755322    -0.25100
H1467       H  0.13431359  0.89068493  0.17982858     0.08800
H1468       H  0.15422867  0.86215317  0.17748858     0.12400
H1469       H  0.16694917  0.90966735  0.22418199     0.12300
H1470       H  0.19392640  0.88980026  0.23449938     0.12100
H1471       H  0.21447689  0.86162015  0.23129998     0.12600
H1472       H  0.18108747  0.84305904  0.18731720     0.14600
C1473       C  0.23757958  0.71779265  0.13866489    -0.05500
C1474       C  0.21889473  0.71312629  0.13370230    -0.05400
C1475       C  0.21555407  0.70131826  0.11938047    -0.23600
C1476       C  0.23086341  0.69449908  0.10946302     0.18700
C1477       C  0.24973535  0.69912961  0.11436744     0.15900
C1478       C  0.25298962  0.71040836  0.12918101    -0.18600
C1479       C  0.26497994  0.69287079  0.10407888    -0.20400
C1480       C  0.26155996  0.68244147  0.08889257    -0.13000
C1481       C  0.24286748  0.67772430  0.08389601     0.03700
C1482       C  0.22758069  0.68359688  0.09445582    -0.25100
H1483       H  0.20687051  0.71861763  0.14095507     0.08800
H1484       H  0.20099782  0.69791552  0.11581290     0.12400
H1485       H  0.26743124  0.71413329  0.13289997     0.12300
H1486       H  0.27953110  0.69634057  0.10760401     0.12100
H1487       H  0.27357720  0.67802497  0.08106567     0.12600
H1488       H  0.21305838  0.68021457  0.09073551     0.14600
C1489       C  0.34495057  0.69293439  0.93584957    -0.05500
C1490       C  0.36161191  0.70126361  0.92902146    -0.05400
C1491       C  0.36056467  0.71599485  0.91663975    -0.23600
C1492       C  0.34281675  0.72243294  0.91058738     0.18700
C1493       C  0.32593726  0.71423145  0.91739821     0.15900
C1494       C  0.32710042  0.69973984  0.93019983    -0.18600
C1495       C  0.30821382  0.72029181  0.91091750    -0.20400
C1496       C  0.30725135  0.73393277  0.89750227    -0.13000
C1497       C  0.32394980  0.74204899  0.89058557     0.03700
C1498       C  0.34170314  0.73650723  0.89745256    -0.25100
H1499       H  0.37553487  0.69635654  0.93326759     0.08800
H1500       H  0.37364148  0.72208284  0.91155425     0.12400
H1501       H  0.31417863  0.69329670  0.93527817     0.12300
H1502       H  0.29512561  0.71417487  0.91594484     0.12100
H1503       H  0.29341345  0.73808170  0.89245488     0.12600
H1504       H  0.35468358  0.74247532  0.89204907     0.14600
C1505       C  0.32104721  0.65720327  0.98665532    -0.05500
C1506       C  0.32745660  0.65454424  0.00379765    -0.05400
C1507       C  0.31454217  0.65445858  0.01761181    -0.23600
C1508       C  0.29494095  0.65652414  0.01445656     0.18700
C1509       C  0.28831011  0.65843840  0.99715706     0.15900
C1510       C  0.30142400  0.65910022  0.98340172    -0.18600
C1511       C  0.26867860  0.65970117  0.99392287    -0.20400
C1512       C  0.25573482  0.65918278  0.00768221    -0.13000
C1513       C  0.26217658  0.65787845  0.02495233     0.03700
C1514       C  0.28185470  0.65663244  0.02826756    -0.25100
H1515       H  0.34254459  0.65316281  0.00655435     0.08800
H1516       H  0.31988792  0.65282343  0.03075742     0.12400
H1517       H  0.29639589  0.66099400  0.97016595     0.12300
H1518       H  0.26332751  0.66102784  0.98075133     0.12100
H1519       H  0.24063743  0.66016263  0.00483314     0.12600
H1520       H  0.28692844  0.65536135  0.04154244     0.14600
C1521       C  0.42914785  0.58285516  0.95987923    -0.05500
C1522       C  0.41519506  0.57842739  0.97235901    -0.05400
C1523       C  0.39976088  0.59084186  0.97504828    -0.23600
C1524       C  0.39810191  0.60797998  0.96539792     0.18700
C1525       C  0.41223511  0.61262441  0.95300913     0.15900
C1526       C  0.42757031  0.60006774  0.95031190    -0.18600
C1527       C  0.41080155  0.62973606  0.94341424    -0.20400
C1528       C  0.39536479  0.64204961  0.94583478    -0.13000
C1529       C  0.38097367  0.63756214  0.95791621     0.03700
C1530       C  0.38254110  0.62048687  0.96780020    -0.25100
H1531       H  0.41602484  0.56520857  0.97986008     0.08800
H1532       H  0.38909773  0.58700071  0.98461356     0.12400
H1533       H  0.43835795  0.60383634  0.94084178     0.12300
H1534       H  0.42156120  0.63355058  0.93392449     0.12100
H1535       H  0.39468701  0.65509873  0.93807285     0.12600
H1536       H  0.37159617  0.61679479  0.97715074     0.14600
C1537       C  0.46520778  0.44581207  0.18304381    -0.05500
C1538       C  0.46640079  0.46405005  0.17511999    -0.05400
C1539       C  0.47683246  0.46656712  0.15974559    -0.23600
C1540       C  0.48646484  0.45093330  0.15224018     0.18700
C1541       C  0.48581920  0.43271637  0.16052715     0.15900
C1542       C  0.47516243  0.43027534  0.17572869    -0.18600
C1543       C  0.49571188  0.41712391  0.15342594    -0.20400
C1544       C  0.50618994  0.41949614  0.13821083    -0.13000
C1545       C  0.50678331  0.43741559  0.12964272     0.03700
C1546       C  0.49675702  0.45312065  0.13666408    -0.25100
H1547       H  0.45877802  0.47619275  0.18049905     0.08800
H1548       H  0.47724279  0.48067863  0.15366218     0.12400
H1549       H  0.47453074  0.41616856  0.18184267     0.12300
H1550       H  0.49535593  0.40307703  0.15964654     0.12100
H1551       H  0.51362791  0.40715468  0.13299332     0.12600
H1552       H  0.49727531  0.46704172  0.13022463     0.14600
C1553       C  0.19927030  0.63939743  0.04795946    -0.05500
C1554       C  0.19530093  0.62839401  0.03309529    -0.05400
C1555       C  0.17818613  0.61817480  0.03168735    -0.23600
C1556       C  0.16473057  0.61875242  0.04512210     0.18700
C1557       C  0.16844751  0.63005753  0.05993927     0.15900
C1558       C  0.18558103  0.64029289  0.06124322    -0.18600
C1559       C  0.15509224  0.63074470  0.07338218    -0.20400
C1560       C  0.13838872  0.61995435  0.07239553    -0.13000
C1561       C  0.13465378  0.60820687  0.05795196     0.03700
C1562       C  0.14781242  0.60796001  0.04417165    -0.25100
H1563       H  0.20552913  0.62745445  0.02262783     0.08800
H1564       H  0.17558696  0.60963391  0.02019245     0.12400
H1565       H  0.18830887  0.64876171  0.07276522     0.12300
H1566       H  0.15765959  0.63946407  0.08477743     0.12100
H1567       H  0.12846041  0.62081648  0.08307948     0.12600
H1568       H  0.14521595  0.59901139  0.03294395     0.14600
C1569       C  0.05468964  0.45502380  0.88004683    -0.05500
C1570       C  0.05561342  0.43659936  0.87263761    -0.05400
C1571       C  0.06718302  0.43314133  0.85827568    -0.23600
C1572       C  0.07789683  0.44809572  0.85090172     0.18700
C1573       C  0.07657591  0.46687611  0.85777535     0.15900
C1574       C  0.06508486  0.47019851  0.87239975    -0.18600
C1575       C  0.08695207  0.48190727  0.84999576    -0.20400
C1576       C  0.09880436  0.47825818  0.83577346    -0.13000
C1577       C  0.10072358  0.45947652  0.82934416     0.03700
C1578       C  0.09008897  0.44449413  0.83689774    -0.25100
H1579       H  0.04783709  0.42464419  0.87825557     0.08800
H1580       H  0.06793165  0.41869460  0.85306841     0.12400
H1581       H  0.06426677  0.48454507  0.87781177     0.12300
H1582       H  0.08603073  0.49643024  0.85499841     0.12100
H1583       H  0.10689416  0.48999295  0.83011647     0.12600
H1584       H  0.09130434  0.42999790  0.83184482     0.14600
C1585       C  0.69548346  0.36203319  0.04292089    -0.05500
C1586       C  0.69196537  0.37603445  0.03000529    -0.05400
C1587       C  0.67465827  0.38607799  0.02952385    -0.23600
C1588       C  0.66051203  0.38229078  0.04192581     0.18700
C1589       C  0.66383936  0.36815411  0.05486741     0.15900
C1590       C  0.68120992  0.35814357  0.05527188    -0.18600
C1591       C  0.64979366  0.36433864  0.06730916    -0.20400
C1592       C  0.63267330  0.37458055  0.06708678    -0.13000
C1593       C  0.62919819  0.38883133  0.05439814     0.03700
C1594       C  0.64318617  0.39249392  0.04172182    -0.25100
H1595       H  0.70267883  0.37941014  0.02036183     0.08800
H1596       H  0.67238851  0.39688619  0.01950882     0.12400
H1597       H  0.68360801  0.34738469  0.06531378     0.12300
H1598       H  0.65208214  0.35348598  0.07728441     0.12100
H1599       H  0.62212426  0.37122471  0.07686987     0.12600
H1600       H  0.64080837  0.40350870  0.03192049     0.14600
C1601       C  0.88141417  0.36296919  0.95597689    -0.05500
C1602       C  0.89548203  0.35885047  0.94352888    -0.05400
C1603       C  0.91188634  0.37003979  0.94219581    -0.23600
C1604       C  0.91467183  0.38570998  0.95324182     0.18700
C1605       C  0.90088059  0.39002787  0.96597360     0.15900
C1606       C  0.88432234  0.37858169  0.96733471    -0.18600
C1607       C  0.90387313  0.40583879  0.97693336    -0.20400
C1608       C  0.92021663  0.41731383  0.97513139    -0.13000
C1609       C  0.93394177  0.41322058  0.96234579     0.03700
C1610       C  0.93101028  0.39718973  0.95156643    -0.25100
H1611       H  0.89381404  0.34695243  0.93462935     0.08800
H1612       H  0.92234460  0.36651062  0.93237872     0.12400
H1613       H  0.87364076  0.38202600  0.97697399     0.12300
H1614       H  0.89350992  0.40943091  0.98680868     0.12100
H1615       H  0.92194831  0.42949091  0.98368035     0.12600
H1616       H  0.94135048  0.39354052  0.94172504     0.14600
C1617       C  0.81931139  0.34536446  0.98227455    -0.05500
C1618       C  0.82522002  0.34708604  0.99963972    -0.05400
C1619       C  0.81182119  0.34770664  0.01304760    -0.23600
C1620       C  0.79225912  0.34707603  0.00927576     0.18700
C1621       C  0.78614386  0.34602326  0.99179411     0.15900
C1622       C  0.79970765  0.34483740  0.97843601    -0.18600
C1623       C  0.76656834  0.34609518  0.98799856    -0.20400
C1624       C  0.75317128  0.34684054  0.00140856    -0.13000
C1625       C  0.75911431  0.34708713  0.01884015     0.03700
C1626       C  0.77871801  0.34732658  0.02267994    -0.25100
H1627       H  0.84024757  0.34743907  0.00287508     0.08800
H1628       H  0.81676057  0.34862960  0.02636468     0.12400
H1629       H  0.79503494  0.34369543  0.96504499     0.12300
H1630       H  0.76161977  0.34544245  0.97467042     0.12100
H1631       H  0.73814219  0.34655679  0.99817347     0.12600
H1632       H  0.78341504  0.34769724  0.03610555     0.14600
C1633       C  0.80723953  0.65703651  0.53255438    -0.05500
C1634       C  0.78827848  0.65945943  0.53796011    -0.05400
C1635       C  0.77325775  0.65763239  0.52617857    -0.23600
C1636       C  0.77696878  0.65384792  0.50866351     0.18700
C1637       C  0.79599887  0.65130890  0.50306873     0.15900
C1638       C  0.81100619  0.65249651  0.51514232    -0.18600
C1639       C  0.79971110  0.64838665  0.48538404    -0.20400
C1640       C  0.78477261  0.64847947  0.47332265    -0.13000
C1641       C  0.76586572  0.65088126  0.47881955     0.03700
C1642       C  0.76201278  0.65321254  0.49655864    -0.25100
H1643       H  0.78508650  0.66298681  0.55132919     0.08800
H1644       H  0.75878235  0.65971488  0.53067142     0.12400
H1645       H  0.82561853  0.65092927  0.51082570     0.12300
H1646       H  0.81418928  0.64651208  0.48083175     0.12100
H1647       H  0.78796527  0.64663860  0.45967426     0.12600
H1648       H  0.74744979  0.65535470  0.50082596     0.14600
C1649       C  0.10129723  0.55272273  0.67701470    -0.05500
C1650       C  0.09744798  0.53368006  0.67198640    -0.05400
C1651       C  0.08465155  0.52990766  0.65842947    -0.23600
C1652       C  0.07520563  0.54510928  0.64988972     0.18700
C1653       C  0.07867118  0.56426396  0.65514423     0.15900
C1654       C  0.09183472  0.56794438  0.66845974    -0.18600
C1655       C  0.06885846  0.57946816  0.64704484    -0.20400
C1656       C  0.05583098  0.57579158  0.63374240    -0.13000
C1657       C  0.05262648  0.55689514  0.62805321     0.03700
C1658       C  0.06236408  0.54155215  0.63621333    -0.25100
H1659       H  0.10454428  0.52171140  0.67838293     0.08800
H1660       H  0.08210804  0.51511706  0.65466312     0.12400
H1661       H  0.09446449  0.58268704  0.67235919     0.12300
H1662       H  0.07128569  0.59422581  0.65097700     0.12100
H1663       H  0.04862379  0.58783466  0.62757817     0.12600
H1664       H  0.05983172  0.52689430  0.63202854     0.14600
C1665       C  0.87253560  0.64519565  0.55510233    -0.05500
C1666       C  0.88748836  0.65107091  0.56608469    -0.05400
C1667       C  0.90412757  0.64021377  0.56759170    -0.23600
C1668       C  0.90624932  0.62319982  0.55815921     0.18700
C1669       C  0.89153613  0.61715736  0.54687995     0.15900
C1670       C  0.87475912  0.62821189  0.54537435    -0.18600
C1671       C  0.89385332  0.60008641  0.53745022    -0.20400
C1672       C  0.91052604  0.58912181  0.53925880    -0.13000
C1673       C  0.92518053  0.59498552  0.55056623     0.03700
C1674       C  0.92287210  0.61213865  0.55992475    -0.25100
H1675       H  0.88632294  0.66406244  0.57371831     0.08800
H1676       H  0.91529964  0.64507660  0.57626087     0.12400
H1677       H  0.86340041  0.62344041  0.53686620     0.12300
H1678       H  0.88275056  0.59516767  0.52873899     0.12100
H1679       H  0.91180395  0.57593787  0.53193294     0.12600
H1680       H  0.93405599  0.61707093  0.56852427     0.14600
C1681       C  0.51282337  0.55475101  0.37789350    -0.05500
C1682       C  0.50858848  0.57340230  0.37182048    -0.05400
C1683       C  0.49544123  0.57619062  0.35837971    -0.23600
C1684       C  0.48654791  0.56034467  0.35061256     0.18700
C1685       C  0.49128513  0.54148761  0.35618003     0.15900
C1686       C  0.50424864  0.53882457  0.36989132    -0.18600
C1687       C  0.48282381  0.52562557  0.34805081    -0.20400
C1688       C  0.46950060  0.52841209  0.33474905    -0.13000
C1689       C  0.46417898  0.54710220  0.32956275     0.03700
C1690       C  0.47288534  0.56303250  0.33748397    -0.25100
H1691       H  0.51499213  0.58589031  0.37782702     0.08800
H1692       H  0.49208838  0.59073886  0.35418406     0.12400
H1693       H  0.50766994  0.52437295  0.37432846     0.12300
H1694       H  0.48640581  0.51107051  0.35206049     0.12100
H1695       H  0.46300866  0.51593138  0.32879623     0.12600
H1696       H  0.46908937  0.57751333  0.33338230     0.14600
C1697       C  0.63566779  0.60309439  0.45226551    -0.05500
C1698       C  0.63754944  0.61755088  0.43947406    -0.05400
C1699       C  0.65371598  0.62908277  0.43870852    -0.23600
C1700       C  0.66842554  0.62655166  0.45076197     0.18700
C1701       C  0.66670791  0.61249979  0.46402282     0.15900
C1702       C  0.65028642  0.60083741  0.46473859    -0.18600
C1703       C  0.68161433  0.61021183  0.47607874    -0.20400
C1704       C  0.69819933  0.62136839  0.47465458    -0.13000
C1705       C  0.70015461  0.63501416  0.46116074     0.03700
C1706       C  0.68496264  0.63769816  0.44947666    -0.25100
H1707       H  0.62657625  0.62007705  0.42985888     0.08800
H1708       H  0.65477962  0.63989543  0.42853517     0.12400
H1709       H  0.64913231  0.58985126  0.47472998     0.12300
H1710       H  0.68058844  0.59959516  0.48641335     0.12100
H1711       H  0.70963816  0.61900667  0.48389619     0.12600
H1712       H  0.68609590  0.64823012  0.43906987     0.14600
C1713       C  0.22897123  0.27254871  0.38047886    -0.05500
C1714       C  0.21072496  0.27660400  0.38696634    -0.05400
C1715       C  0.20829256  0.29028707  0.40002434    -0.23600
C1716       C  0.22413438  0.29981680  0.40704705     0.18700
C1717       C  0.24259585  0.29537279  0.40094612     0.15900
C1718       C  0.24486384  0.28196739  0.38754545    -0.18600
C1719       C  0.25847907  0.30447081  0.40830112    -0.20400
C1720       C  0.25611509  0.31808599  0.42140409    -0.13000
C1721       C  0.23780907  0.32307010  0.42720824     0.03700
C1722       C  0.22184522  0.31375326  0.42000615    -0.25100
H1723       H  0.19828754  0.26955906  0.38160377     0.08800
H1724       H  0.19403960  0.29345024  0.40458852     0.12400
H1725       H  0.25899584  0.27873503  0.38269522     0.12300
H1726       H  0.27273710  0.30112479  0.40386066     0.12100
H1727       H  0.26862666  0.32503018  0.42672786     0.12600
H1728       H  0.20764445  0.31728626  0.42450798     0.14600
C1729       C  0.14193267  0.41864970  0.46147291    -0.05500
C1730       C  0.15508939  0.42286698  0.47472150    -0.05400
C1731       C  0.17229293  0.41264061  0.47602383    -0.23600
C1732       C  0.17645811  0.39786868  0.46423017     0.18700
C1733       C  0.16305908  0.39341491  0.45111440     0.15900
C1734       C  0.14604026  0.40382345  0.44979051    -0.18600
C1735       C  0.16682266  0.37859974  0.43942763    -0.20400
C1736       C  0.18378437  0.36829835  0.44054581    -0.13000
C1737       C  0.19749195  0.37258972  0.45333675     0.03700
C1738       C  0.19369483  0.38746312  0.46523735    -0.25100
H1739       H  0.15222470  0.43427684  0.48387748     0.08800
H1740       H  0.18231624  0.41628876  0.48621122     0.12400
H1741       H  0.13586724  0.40016838  0.43972425     0.12300
H1742       H  0.15665120  0.37499426  0.42934155     0.12100
H1743       H  0.18617522  0.35700517  0.43116314     0.12600
H1744       H  0.20406336  0.39095027  0.47518802     0.14600
C1745       C  0.33319048  0.33124334  0.57886617    -0.05500
C1746       C  0.31481054  0.32826228  0.58560047    -0.05400
C1747       C  0.31176924  0.31524999  0.59916094    -0.23600
C1748       C  0.32701611  0.30471108  0.60611490     0.18700
C1749       C  0.34555803  0.30725313  0.59929629     0.15900
C1750       C  0.34859418  0.32071470  0.58583759    -0.18600
C1751       C  0.36065379  0.29618353  0.60601499    -0.20400
C1752       C  0.35740131  0.28288595  0.61942998    -0.13000
C1753       C  0.33909916  0.28071276  0.62653908     0.03700
C1754       C  0.32396371  0.29165854  0.61978148    -0.25100
H1755       H  0.30270673  0.33617481  0.58047113     0.08800
H1756       H  0.29746463  0.31338956  0.60417033     0.12400
H1757       H  0.36278240  0.32270224  0.58058619     0.12300
H1758       H  0.37494460  0.29782038  0.60092063     0.12100
H1759       H  0.36928977  0.27463323  0.62453268     0.12600
H1760       H  0.30975468  0.28987170  0.62505157     0.14600
C1761       C  0.37311494  0.37681857  0.54541641    -0.05500
C1762       C  0.37415727  0.39333555  0.53475360    -0.05400
C1763       C  0.39128866  0.40349046  0.53299660    -0.23600
C1764       C  0.40773121  0.39728551  0.54182149     0.18700
C1765       C  0.40688268  0.38054140  0.55234071     0.15900
C1766       C  0.38966003  0.37048160  0.55408430    -0.18600
C1767       C  0.42322448  0.37422922  0.56116886    -0.20400
C1768       C  0.44012563  0.38470477  0.56004784    -0.13000
C1769       C  0.44109331  0.40167594  0.55002836     0.03700
C1770       C  0.42489091  0.40769443  0.54061589    -0.25100
H1771       H  0.36164529  0.39860543  0.52795844     0.08800
H1772       H  0.39162315  0.41629219  0.52487304     0.12400
H1773       H  0.38916256  0.35773055  0.56227716     0.12300
H1774       H  0.42286845  0.36132659  0.56916317     0.12100
H1775       H  0.45244841  0.37952980  0.56716976     0.12600
H1776       H  0.42541203  0.42077333  0.53287153     0.14600
C1777       C  0.30645776  0.36349619  0.52789973    -0.05500
C1778       C  0.28777475  0.36108792  0.53410294    -0.05400
C1779       C  0.27230241  0.36101905  0.52268599    -0.23600
C1780       C  0.27525456  0.36291896  0.50477970     0.18700
C1781       C  0.29397631  0.36555682  0.49837236     0.15900
C1782       C  0.30943596  0.36624409  0.51001539    -0.18600
C1783       C  0.29697520  0.36657881  0.48038685    -0.20400
C1784       C  0.28169307  0.36432551  0.46888947    -0.13000
C1785       C  0.26311131  0.36168644  0.47517945     0.03700
C1786       C  0.25989149  0.36142859  0.49314389    -0.25100
H1787       H  0.28514785  0.35896026  0.54784296     0.08800
H1788       H  0.25808990  0.35889458  0.52782266     0.12400
H1789       H  0.32381666  0.36780977  0.50509092     0.12300
H1790       H  0.31119863  0.36849059  0.47521276     0.12100
H1791       H  0.28438064  0.36447196  0.45503800     0.12600
H1792       H  0.24559631  0.35903388  0.49802035     0.14600
C1793       C  0.95740989  0.95724007  0.67387929    -0.05500
C1794       C  0.95069309  0.95369473  0.65700881    -0.05400
C1795       C  0.96276098  0.95551777  0.64274479    -0.23600
C1796       C  0.98191625  0.96050352  0.64511993     0.18700
C1797       C  0.98894090  0.96403113  0.66203707     0.15900
C1798       C  0.97651898  0.96273501  0.67633407    -0.18600
C1799       C  0.00833091  0.96835906  0.66431704    -0.20400
C1800       C  0.02058942  0.96915231  0.64998322    -0.13000
C1801       C  0.01357979  0.96603551  0.63311833     0.03700
C1802       C  0.99418713  0.96173776  0.63082710    -0.25100
H1803       H  0.93602159  0.94946755  0.65485589     0.08800
H1804       H  0.95717804  0.95271150  0.62987002     0.12400
H1805       H  0.98185049  0.96523423  0.68935636     0.12300
H1806       H  0.01403601  0.97098786  0.67717629     0.12100
H1807       H  0.03548236  0.97252905  0.65204774     0.12600
H1808       H  0.98867643  0.95895364  0.61792051     0.14600
C1809       C  0.97919531  0.05172149  0.82171647    -0.05500
C1810       C  0.98065825  0.03265508  0.82781567    -0.05400
C1811       C  0.99192763  0.02827574  0.84235808    -0.23600
C1812       C  0.00206099  0.04286040  0.85090084     0.18700
C1813       C  0.00104638  0.06197006  0.84453109     0.15900
C1814       C  0.98961264  0.06626188  0.83010049    -0.18600
C1815       C  0.01136883  0.07656158  0.85276441    -0.20400
C1816       C  0.02253681  0.07231856  0.86728939    -0.13000
C1817       C  0.02342130  0.05345608  0.87397731     0.03700
C1818       C  0.01312477  0.03874302  0.86571429    -0.25100
H1819       H  0.97276229  0.02120730  0.82159129     0.08800
H1820       H  0.99260801  0.01351934  0.84699300     0.12400
H1821       H  0.98881802  0.08101115  0.82542447     0.12300
H1822       H  0.01073756  0.09128392  0.84802063     0.12100
H1823       H  0.03015888  0.08394327  0.87351685     0.12600
H1824       H  0.01385726  0.02412396  0.87070606     0.14600
C1825       C  0.94392038  0.03486668  0.76827660    -0.05500
C1826       C  0.94261362  0.04133294  0.75098636    -0.05400
C1827       C  0.93939610  0.02836810  0.73754607    -0.23600
C1828       C  0.93709823  0.00871833  0.74117913     0.18700
C1829       C  0.93735022  0.00211202  0.75859284     0.15900
C1830       C  0.94101835  0.01522590  0.77206674    -0.18600
C1831       C  0.93434556  0.98245541  0.76210450    -0.20400
C1832       C  0.93202050  0.96938616  0.74844619    -0.13000
C1833       C  0.93301319  0.97576163  0.73112840     0.03700
C1834       C  0.93509550  0.99551669  0.72761649    -0.25100
H1835       H  0.94473625  0.05639449  0.74777651     0.08800
H1836       H  0.93903603  0.03367059  0.72427662     0.12400
H1837       H  0.94170397  0.01018963  0.78541493     0.12300
H1838       H  0.93421828  0.97713918  0.77536770     0.12100
H1839       H  0.93031102  0.95420775  0.75138520     0.12600
H1840       H  0.93550939  0.00056778  0.71425885     0.14600
C1841       C  0.74833341  0.17862834  0.57782722    -0.05500
C1842       C  0.76601860  0.18092139  0.58612931    -0.05400
C1843       C  0.76784407  0.19336189  0.60030495    -0.23600
C1844       C  0.75205051  0.20388836  0.60623229     0.18700
C1845       C  0.73441930  0.20224244  0.59746430     0.15900
C1846       C  0.73266028  0.18959186  0.58342727    -0.18600
C1847       C  0.71870509  0.21298464  0.60308557    -0.20400
C1848       C  0.72027312  0.22490277  0.61756359    -0.13000
C1849       C  0.73752916  0.22621228  0.62680942     0.03700
C1850       C  0.75347440  0.21578868  0.62090648    -0.25100
H1851       H  0.77825092  0.17258254  0.58205351     0.08800
H1852       H  0.78151279  0.19452011  0.60679375     0.12400
H1853       H  0.71898684  0.18809662  0.57697545     0.12300
H1854       H  0.70511276  0.21195592  0.59643816     0.12100
H1855       H  0.70775413  0.23266775  0.62179044     0.12600
H1856       H  0.76695376  0.21686180  0.62772512     0.14600
C1857       C  0.84743857  0.27214323  0.87498781    -0.05500
C1858       C  0.86579250  0.27466767  0.88196803    -0.05400
C1859       C  0.86861801  0.28603430  0.89665885    -0.23600
C1860       C  0.85309166  0.29486028  0.90482674     0.18700
C1861       C  0.83448207  0.29194572  0.89828501     0.15900
C1862       C  0.83179218  0.28078637  0.88328298    -0.18600
C1863       C  0.81892647  0.30035998  0.90681450    -0.20400
C1864       C  0.82181870  0.31186888  0.92146023    -0.13000
C1865       C  0.84032849  0.31543574  0.92764904     0.03700
C1866       C  0.85590210  0.30670047  0.91932219    -0.25100
H1867       H  0.87808568  0.26825909  0.87579362     0.08800
H1868       H  0.88296925  0.28802872  0.90155802     0.12400
H1869       H  0.81754991  0.27873095  0.87814006     0.12300
H1870       H  0.80454125  0.29817167  0.90207841     0.12100
H1871       H  0.80960940  0.31843387  0.92765155     0.12600
H1872       H  0.87023849  0.30913252  0.92411701     0.14600
C1873       C  0.89607274  0.15772010  0.78679480    -0.05500
C1874       C  0.89011109  0.14438218  0.77424038    -0.05400
C1875       C  0.89998390  0.12710496  0.77198892    -0.23600
C1876       C  0.91600409  0.12289381  0.78223731     0.18700
C1877       C  0.92249368  0.13651541  0.79446720     0.15900
C1878       C  0.91252147  0.15382988  0.79664213    -0.18600
C1879       C  0.93853434  0.13235996  0.80468111    -0.20400
C1880       C  0.94752606  0.11449465  0.80339825    -0.13000
C1881       C  0.94070504  0.10048359  0.79181030     0.03700
C1882       C  0.92523753  0.10504131  0.78087784    -0.25100
H1883       H  0.87745583  0.14699038  0.76650743     0.08800
H1884       H  0.89483280  0.11685802  0.76251621     0.12400
H1885       H  0.91743602  0.16413460  0.80616681     0.12300
H1886       H  0.94381202  0.14271270  0.81400235     0.12100
H1887       H  0.95956026  0.11149486  0.81183197     0.12600
H1888       H  0.91986303  0.09445285  0.77181651     0.14600
C1889       C  0.59742018  0.53737213  0.82936624    -0.05500
C1890       C  0.59754148  0.51874621  0.83657353    -0.05400
C1891       C  0.58531970  0.51406835  0.85032368    -0.23600
C1892       C  0.57255327  0.52786613  0.85678322     0.18700
C1893       C  0.57185472  0.54637704  0.84903354     0.15900
C1894       C  0.58441008  0.55105610  0.83555169    -0.18600
C1895       C  0.55878806  0.56003735  0.85503665    -0.20400
C1896       C  0.54681485  0.55561895  0.86891984    -0.13000
C1897       C  0.54783100  0.53754881  0.87721341     0.03700
C1898       C  0.56063915  0.52361549  0.87095356    -0.25100
H1899       H  0.60749031  0.50802203  0.83192499     0.08800
H1900       H  0.58596989  0.49975575  0.85599707     0.12400
H1901       H  0.58407683  0.56538378  0.82984728     0.12300
H1902       H  0.55799521  0.57423760  0.84914067     0.12100
H1903       H  0.53717823  0.56664263  0.87350693     0.12600
H1904       H  0.56135710  0.50953969  0.87709706     0.14600
C1905       C  0.61378867  0.45777936  0.67214381    -0.05500
C1906       C  0.60871308  0.47658779  0.66715006    -0.05400
C1907       C  0.59542579  0.47962030  0.65377850    -0.23600
C1908       C  0.58676460  0.46386355  0.64554766     0.18700
C1909       C  0.59140174  0.44494921  0.65101157     0.15900
C1910       C  0.60500913  0.44206140  0.66403347    -0.18600
C1911       C  0.58238669  0.42913823  0.64337089    -0.20400
C1912       C  0.56906043  0.43196294  0.63016963    -0.13000
C1913       C  0.56481372  0.45060081  0.62414862     0.03700
C1914       C  0.57364024  0.46657290  0.63192437    -0.25100
H1915       H  0.61527779  0.48887684  0.67335477     0.08800
H1916       H  0.59193257  0.49423226  0.64988216     0.12400
H1917       H  0.60855705  0.42748509  0.66805739     0.12300
H1918       H  0.58573185  0.41457187  0.64752811     0.12100
H1919       H  0.56252531  0.41948340  0.62426011     0.12600
H1920       H  0.57025359  0.48100489  0.62740916     0.14600
C1921       C  0.65870742  0.41285472  0.69823555    -0.05500
C1922       C  0.66166802  0.40450681  0.68183761    -0.05400
C1923       C  0.66988963  0.38633806  0.68034774    -0.23600
C1924       C  0.67529530  0.37604445  0.69523014     0.18700
C1925       C  0.67269450  0.38429335  0.71180872     0.15900
C1926       C  0.66450548  0.40273207  0.71322899    -0.18600
C1927       C  0.67815941  0.37383641  0.72664442    -0.20400
C1928       C  0.68614866  0.35546068  0.72504420    -0.13000
C1929       C  0.68880305  0.34717182  0.70858465     0.03700
C1930       C  0.68325776  0.35761806  0.69373064    -0.25100
H1931       H  0.65748981  0.41198952  0.67003768     0.08800
H1932       H  0.67186065  0.38027158  0.66753912     0.12400
H1933       H  0.66223593  0.40894178  0.72594091     0.12300
H1934       H  0.67624210  0.37984675  0.73947737     0.12100
H1935       H  0.69015159  0.34773267  0.73674845     0.12600
H1936       H  0.68536966  0.35161521  0.68093233     0.14600
C1937       C  0.63863284  0.47128936  0.73025208    -0.05500
C1938       C  0.64032225  0.46276334  0.74679219    -0.05400
C1939       C  0.63822713  0.47388649  0.76177915    -0.23600
C1940       C  0.63475764  0.49376376  0.76044211     0.18700
C1941       C  0.63375555  0.50252830  0.74382974     0.15900
C1942       C  0.63549316  0.49123400  0.72890392    -0.18600
C1943       C  0.63092524  0.52245558  0.74238533    -0.20400
C1944       C  0.62899304  0.53363602  0.75726536    -0.13000
C1945       C  0.62941023  0.52503925  0.77381896     0.03700
C1946       C  0.63224855  0.50505230  0.77536504    -0.25100
H1947       H  0.64268798  0.44740418  0.74813364     0.08800
H1948       H  0.63919526  0.46693236  0.77439338     0.12400
H1949       H  0.63439446  0.49799015  0.71619756     0.12300
H1950       H  0.63021115  0.52939738  0.72974944     0.12100
H1951       H  0.62675230  0.54900920  0.75583017     0.12600
H1952       H  0.63277072  0.49839381  0.78813836     0.14600
C1953       C  0.72735577  0.76702370  0.87937554    -0.05500
C1954       C  0.70976551  0.76790956  0.88797146    -0.05400
C1955       C  0.70717226  0.78046519  0.90184554    -0.23600
C1956       C  0.72223025  0.79211521  0.90750142     0.18700
C1957       C  0.74026080  0.79070003  0.89947433     0.15900
C1958       C  0.74266238  0.77826899  0.88534037    -0.18600
C1959       C  0.75543210  0.80201908  0.90553233    -0.20400
C1960       C  0.75259354  0.81503910  0.91909288    -0.13000
C1961       C  0.73448452  0.81713068  0.92654580     0.03700
C1962       C  0.71943434  0.80541404  0.92084034    -0.25100
H1963       H  0.69777527  0.75943664  0.88354090     0.08800
H1964       H  0.69330574  0.78129646  0.90796167     0.12400
H1965       H  0.75635363  0.77746291  0.87889305     0.12300
H1966       H  0.76939396  0.80099873  0.89962870     0.12100
H1967       H  0.76436479  0.82392845  0.92335596     0.12600
H1968       H  0.70547376  0.80673833  0.92673060     0.14600
C1969       C  0.68358065  0.64426658  0.79800282    -0.05500
C1970       C  0.68734440  0.63216306  0.78383245    -0.05400
C1971       C  0.67751407  0.61481072  0.78185329    -0.23600
C1972       C  0.66369725  0.60922407  0.79399016     0.18700
C1973       C  0.65969504  0.62131637  0.80821378     0.15900
C1974       C  0.66963714  0.63870328  0.81013341    -0.18600
C1975       C  0.64586862  0.61577932  0.82034557    -0.20400
C1976       C  0.63627822  0.59829010  0.81855935    -0.13000
C1977       C  0.64028730  0.58597044  0.80458380     0.03700
C1978       C  0.65395403  0.59168119  0.79223058    -0.25100
H1979       H  0.69807208  0.63593878  0.77433988     0.08800
H1980       H  0.68079983  0.60571222  0.77087315     0.12400
H1981       H  0.66636520  0.64791252  0.82102791     0.12300
H1982       H  0.64257303  0.62490248  0.83130744     0.12100
H1983       H  0.62581066  0.59436258  0.82826197     0.12600
H1984       H  0.65723316  0.58239598  0.78137267     0.14600
C1985       C  0.80895502  0.74239187  0.62553531    -0.05500
C1986       C  0.79317173  0.73143130  0.62023064    -0.05400
C1987       C  0.79495085  0.71786003  0.60701763    -0.23600
C1988       C  0.81265903  0.71476006  0.59912904     0.18700
C1989       C  0.82857500  0.72587606  0.60423648     0.15900
C1990       C  0.82653748  0.73985558  0.61717521    -0.18600
C1991       C  0.84642227  0.72235635  0.59675547    -0.20400
C1992       C  0.84858133  0.70765832  0.58461815    -0.13000
C1993       C  0.83286437  0.69653557  0.57946949     0.03700
C1994       C  0.81484300  0.70037299  0.58657994    -0.25100
H1995       H  0.77946128  0.73322688  0.62644003     0.08800
H1996       H  0.78260690  0.70946777  0.60327917     0.12400
H1997       H  0.83886678  0.74802582  0.62132896     0.12300
H1998       H  0.85877534  0.73070871  0.60053861     0.12100
H1999       H  0.86256184  0.70502574  0.57918930     0.12600
H2000       H  0.80266439  0.69175138  0.58278415     0.14600
C2001       C  0.86489695  0.85983371  0.70834662    -0.05500
C2002       C  0.86979507  0.86620282  0.72510422    -0.05400
C2003       C  0.88116966  0.88258441  0.72737405    -0.23600
C2004       C  0.88787653  0.89294411  0.71292810     0.18700
C2005       C  0.88292828  0.88668743  0.69606303     0.15900
C2006       C  0.87152087  0.87029758  0.69389514    -0.18600
C2007       C  0.88958487  0.89681984  0.68154720    -0.20400
C2008       C  0.90138668  0.91275322  0.68364208    -0.13000
C2009       C  0.90670416  0.91907624  0.70029687     0.03700
C2010       C  0.89963423  0.90924679  0.71497585    -0.25100
H2011       H  0.86502510  0.85842919  0.73651302     0.08800
H2012       H  0.88481274  0.88706822  0.74042150     0.12400
H2013       H  0.86775484  0.86582042  0.68088575     0.12300
H2014       H  0.88586011  0.89227937  0.66853081     0.12100
H2015       H  0.90644354  0.92012297  0.67210007     0.12600
H2016       H  0.90369411  0.91390748  0.72787606     0.14600
C2017       C  0.56239160  0.94810701  0.37373642    -0.05500
C2018       C  0.57871290  0.93701768  0.37718144    -0.05400
C2019       C  0.59197526  0.93340797  0.36412319    -0.23600
C2020       C  0.58941382  0.94131289  0.34748279     0.18700
C2021       C  0.57310136  0.95265818  0.34385965     0.15900
C2022       C  0.55943834  0.95566664  0.35695384    -0.18600
C2023       C  0.57100812  0.96108872  0.32733043    -0.20400
C2024       C  0.58491457  0.95829649  0.31455380    -0.13000
C2025       C  0.60096543  0.94672341  0.31796089     0.03700
C2026       C  0.60305556  0.93824141  0.33449890    -0.25100
H2027       H  0.58119634  0.93114168  0.39006348     0.08800
H2028       H  0.60442088  0.92473780  0.36713376     0.12400
H2029       H  0.54697373  0.96447177  0.35433230     0.12300
H2030       H  0.55868105  0.96992304  0.32431538     0.12100
H2031       H  0.58292169  0.96488629  0.30188765     0.12600
H2032       H  0.61545247  0.92942113  0.33736018     0.14600
C2033       C  0.55194149  0.05507603  0.12233018    -0.05500
C2034       C  0.55063176  0.07107663  0.13336018    -0.05400
C2035       C  0.56215585  0.07239583  0.14813691    -0.23600
C2036       C  0.57508535  0.05764767  0.15227560     0.18700
C2037       C  0.57582968  0.04099186  0.14184326     0.15900
C2038       C  0.56433541  0.03986086  0.12688413    -0.18600
C2039       C  0.58841988  0.02600106  0.14633863    -0.20400
C2040       C  0.60066081  0.02783253  0.16064038    -0.13000
C2041       C  0.60071100  0.04479979  0.17044254     0.03700
C2042       C  0.58765825  0.05952277  0.16637571    -0.25100
H2043       H  0.54121523  0.08296993  0.13023832     0.08800
H2044       H  0.56125555  0.08516520  0.15611627     0.12400
H2045       H  0.56522722  0.02725426  0.11870132     0.12300
H2046       H  0.58907863  0.01304559  0.13858931     0.12100
H2047       H  0.61065602  0.01636000  0.16359737     0.12600
H2048       H  0.58753555  0.07257612  0.17404071     0.14600
C2049       C  0.63251915  0.96454255  0.26300431    -0.05500
C2050       C  0.63431585  0.95791927  0.24589134    -0.05400
C2051       C  0.63481637  0.97097544  0.23193261    -0.23600
C2052       C  0.63401717  0.99091215  0.23488431     0.18700
C2053       C  0.63320966  0.99773606  0.25212600     0.15900
C2054       C  0.63217630  0.98452333  0.26603339    -0.18600
C2055       C  0.63317971  0.01766487  0.25513505    -0.20400
C2056       C  0.63349746  0.03072218  0.24119333    -0.13000
C2057       C  0.63339295  0.02411270  0.22399264     0.03700
C2058       C  0.63375953  0.00413745  0.22092488    -0.25100
H2059       H  0.63462498  0.94261057  0.24327103     0.08800
H2060       H  0.63563925  0.96547298  0.21881752     0.12400
H2061       H  0.63106302  0.98977063  0.27922838     0.12300
H2062       H  0.63271496  0.02315884  0.26826968     0.12100
H2063       H  0.63310278  0.04602372  0.24384133     0.12600
H2064       H  0.63381031  0.99892548  0.20767876     0.14600
C2065       C  0.73968687  0.31953300  0.07478763    -0.05500
C2066       C  0.75834519  0.31752206  0.08121453    -0.05400
C2067       C  0.76219056  0.30521096  0.09523916    -0.23600
C2068       C  0.74750483  0.29437197  0.10281077     0.18700
C2069       C  0.72874653  0.29604532  0.09621237     0.15900
C2070       C  0.72491083  0.30883055  0.08245277    -0.18600
C2071       C  0.71417062  0.28473555  0.10335605    -0.20400
C2072       C  0.71811443  0.27187592  0.11692014    -0.13000
C2073       C  0.73660257  0.27039481  0.12382054     0.03700
C2074       C  0.75125619  0.28176692  0.11675270    -0.25100
H2075       H  0.76993938  0.32564580  0.07549814     0.08800
H2076       H  0.77667063  0.30404206  0.10006011     0.12400
H2077       H  0.71050913  0.31008879  0.07742548     0.12300
H2078       H  0.69973281  0.28577288  0.09840489     0.12100
H2079       H  0.70658731  0.26336530  0.12226770     0.12600
H2080       H  0.76560672  0.28055409  0.12190034     0.14600
C2081       C  0.69884461  0.14054969  0.20005920    -0.05500
C2082       C  0.70301981  0.12718669  0.21337753    -0.05400
C2083       C  0.69212141  0.11042017  0.21547580    -0.23600
C2084       C  0.67670949  0.10665829  0.20435537     0.18700
C2085       C  0.67240770  0.11995375  0.19091448     0.15900
C2086       C  0.68347652  0.13669410  0.18881496    -0.18600
C2087       C  0.65702783  0.11635368  0.17979384    -0.20400
C2088       C  0.64602993  0.09975821  0.18188713    -0.13000
C2089       C  0.65009007  0.08624377  0.19514647     0.03700
C2090       C  0.66554409  0.08987886  0.20641008    -0.25100
H2091       H  0.71482940  0.12957537  0.22216259     0.08800
H2092       H  0.69573646  0.10041428  0.22583512     0.12400
H2093       H  0.67987675  0.14682018  0.17855732     0.12300
H2094       H  0.65348860  0.12638199  0.16942530     0.12100
H2095       H  0.63430132  0.09752383  0.17296079     0.12600
H2096       H  0.66896794  0.07966355  0.21666038     0.14600
C2097       C  0.82714817  0.17583768  0.41783515    -0.05500
C2098       C  0.80956782  0.17676085  0.40911728    -0.05400
C2099       C  0.80674289  0.19012699  0.39563194    -0.23600
C2100       C  0.82136183  0.20293768  0.39091289     0.18700
C2101       C  0.83877902  0.20254687  0.40014983     0.15900
C2102       C  0.84158811  0.18894816  0.41340389    -0.18600
C2103       C  0.85327056  0.21555556  0.39581695    -0.20400
C2104       C  0.85079862  0.22852435  0.38208875    -0.13000
C2105       C  0.83385243  0.22861716  0.37234090     0.03700
C2106       C  0.81903901  0.21592338  0.37699014    -0.25100
H2107       H  0.79825630  0.16678301  0.41238634     0.08800
H2108       H  0.79323696  0.19029878  0.38877677     0.12400
H2109       H  0.85510042  0.18852262  0.42027179     0.12300
H2110       H  0.86665621  0.21549393  0.40287266     0.12100
H2111       H  0.86245366  0.23804477  0.37877311     0.12600
H2112       H  0.80578234  0.21604659  0.36974023     0.14600
C2113       C  0.95551154  0.54060671  0.16869161    -0.05500
C2114       C  0.94817614  0.54328348  0.15187112    -0.05400
C2115       C  0.96035927  0.54528626  0.13774453    -0.23600
C2116       C  0.98011305  0.54506229  0.14027038     0.18700
C2117       C  0.98773417  0.54263655  0.15717151     0.15900
C2118       C  0.97532511  0.54009211  0.17131940    -0.18600
C2119       C  0.00758221  0.54313596  0.15956752    -0.20400
C2120       C  0.01971580  0.54564430  0.14529647    -0.13000
C2121       C  0.01215251  0.54739175  0.12844906     0.03700
C2122       C  0.99232399  0.54731282  0.12610584    -0.25100
H2123       H  0.93292538  0.54396525  0.14969590     0.08800
H2124       H  0.95432927  0.54727592  0.12487940     0.12400
H2125       H  0.98099573  0.53852167  0.18436756     0.12300
H2126       H  0.01370212  0.54151855  0.17243196     0.12100
H2127       H  0.03498607  0.54571875  0.14736246     0.12600
H2128       H  0.98632098  0.54913802  0.11321018     0.14600
C2129       C  0.96958612  0.45527123  0.33209908    -0.05500
C2130       C  0.95966262  0.45595041  0.34789862    -0.05400
C2131       C  0.96939545  0.45862181  0.36351950    -0.23600
C2132       C  0.98930464  0.46010571  0.36364176     0.18700
C2133       C  0.99942429  0.45977865  0.34777702     0.15900
C2134       C  0.98943307  0.45778357  0.33202095    -0.18600
C2135       C  0.01939433  0.46059801  0.34804092    -0.20400
C2136       C  0.02924653  0.46125715  0.36385752    -0.13000
C2137       C  0.01930531  0.46147881  0.37967937     0.03700
C2138       C  0.99927186  0.46120179  0.37941744    -0.25100
H2139       H  0.94434922  0.45398211  0.34816379     0.08800
H2140       H  0.96141420  0.45883152  0.37554950     0.12400
H2141       H  0.99715209  0.45694989  0.31986632     0.12300
H2142       H  0.02741102  0.46032093  0.33603551     0.12100
H2143       H  0.04466597  0.46164631  0.36369239     0.12600
H2144       H  0.99139224  0.46110676  0.39150049     0.14600
C2145       C  0.92566691  0.41060191  0.30414247    -0.05500
C2146       C  0.92234157  0.40193104  0.32043287    -0.05400
C2147       C  0.91121010  0.38537881  0.32185792    -0.23600
C2148       C  0.90319321  0.37707026  0.30702600     0.18700
C2149       C  0.90645132  0.38551328  0.29055547     0.15900
C2150       C  0.91764384  0.40224542  0.28920014    -0.18600
C2151       C  0.89841781  0.37706393  0.27575496    -0.20400
C2152       C  0.88717545  0.36050175  0.27728236    -0.13000
C2153       C  0.88376910  0.35202993  0.29364029     0.03700
C2154       C  0.89192323  0.36047707  0.30845865    -0.25100
H2155       H  0.92829891  0.40796718  0.33218791     0.08800
H2156       H  0.90886870  0.37907731  0.33459067     0.12400
H2157       H  0.92015574  0.40865867  0.27653836     0.12300
H2158       H  0.90080345  0.38327112  0.26299450     0.12100
H2159       H  0.88126868  0.35430597  0.26559415     0.12600
H2160       H  0.88938928  0.35434209  0.32120409     0.14600
C2161       C  0.95077721  0.46592169  0.27119743    -0.05500
C2162       C  0.96706724  0.46888371  0.26102044    -0.05400
C2163       C  0.96628506  0.48098813  0.24639798    -0.23600
C2164       C  0.94932402  0.49071192  0.24209955     0.18700
C2165       C  0.93292615  0.48781281  0.25243642     0.15900
C2166       C  0.93368285  0.47518401  0.26671269    -0.18600
C2167       C  0.91614001  0.49790536  0.24857342    -0.20400
C2168       C  0.91564490  0.51105942  0.23480338    -0.13000
C2169       C  0.93181320  0.51415027  0.22440491     0.03700
C2170       C  0.94857271  0.50363750  0.22795788    -0.25100
H2171       H  0.98032739  0.46173716  0.26434379     0.08800
H2172       H  0.97900994  0.48302962  0.23866309     0.12400
H2173       H  0.92113391  0.47297280  0.27467630     0.12300
H2174       H  0.90346761  0.49586478  0.25638476     0.12100
H2175       H  0.90251727  0.51881990  0.23227792     0.12600
H2176       H  0.96117213  0.50595329  0.22010253     0.14600
C2177       C  0.73970599  0.67633813  0.42398510    -0.05500
C2178       C  0.75705389  0.67669952  0.41492925    -0.05400
C2179       C  0.75870108  0.68700276  0.39931434    -0.23600
C2180       C  0.74311554  0.69743003  0.39268265     0.18700
C2181       C  0.72579212  0.69763697  0.40201763     0.15900
C2182       C  0.72413246  0.68692606  0.41746596    -0.18600
C2183       C  0.71037604  0.70849305  0.39571172    -0.20400
C2184       C  0.71199899  0.71886944  0.38017968    -0.13000
C2185       C  0.72895778  0.71838305  0.37051786     0.03700
C2186       C  0.74452284  0.70762651  0.37689067    -0.25100
H2187       H  0.76921641  0.66862284  0.41971976     0.08800
H2188       H  0.77213260  0.68676832  0.39240658     0.12400
H2189       H  0.71075468  0.68693343  0.42448791     0.12300
H2190       H  0.69703125  0.70889990  0.40275427     0.12100
H2191       H  0.69978218  0.72694942  0.37553779     0.12600
H2192       H  0.75776686  0.70735489  0.36968544     0.14600
C2193       C  0.68528607  0.84062194  0.28631019    -0.05500
C2194       C  0.68259580  0.84849924  0.26956901    -0.05400
C2195       C  0.67326871  0.86618708  0.26724405    -0.23600
C2196       C  0.66640039  0.87637009  0.28160874     0.18700
C2197       C  0.66907698  0.86857846  0.29846041     0.15900
C2198       C  0.67850339  0.85089812  0.30069643    -0.18600
C2199       C  0.66214566  0.87850808  0.31287610    -0.20400
C2200       C  0.65236363  0.89583420  0.31065899    -0.13000
C2201       C  0.64943109  0.90379335  0.29399632     0.03700
C2202       C  0.65672157  0.89405314  0.27946215    -0.25100
H2203       H  0.68751302  0.84095037  0.25817950     0.08800
H2204       H  0.67132702  0.87183303  0.25420265     0.12400
H2205       H  0.68054771  0.84524433  0.31370780     0.12300
H2206       H  0.66410952  0.87277594  0.32588880     0.12100
H2207       H  0.64705743  0.90304458  0.32210806     0.12600
H2208       H  0.65446365  0.89994484  0.26654417     0.14600
C2209       C  0.83057130  0.77253178  0.12470656    -0.05500
C2210       C  0.84928566  0.77586450  0.11905324    -0.05400
C2211       C  0.85294175  0.78931566  0.10599460    -0.23600
C2212       C  0.83789274  0.79940542  0.09814575     0.18700
C2213       C  0.81895820  0.79612864  0.10359548     0.15900
C2214       C  0.81542900  0.78287137  0.11706993    -0.18600
C2215       C  0.80394963  0.80595594  0.09526124    -0.20400
C2216       C  0.80770900  0.81878940  0.08156215    -0.13000
C2217       C  0.82654618  0.82222610  0.07627006     0.03700
C2218       C  0.84153919  0.81252538  0.08474694    -0.25100
H2219       H  0.86116602  0.76820995  0.12488334     0.08800
H2220       H  0.86752840  0.79168896  0.10191659     0.12400
H2221       H  0.80093180  0.78022798  0.12127825     0.12300
H2222       H  0.78932931  0.80357818  0.09921755     0.12100
H2223       H  0.79595084  0.82614450  0.07522627     0.12600
H2224       H  0.85614088  0.81483169  0.08065784     0.14600
C2225       C  0.87188301  0.63782165  0.18834092    -0.05500
C2226       C  0.88410973  0.63458222  0.17419532    -0.05400
C2227       C  0.89481237  0.61776286  0.17315954    -0.23600
C2228       C  0.89362082  0.60380318  0.18626822     0.18700
C2229       C  0.88159292  0.60677825  0.20066903     0.15900
C2230       C  0.87076285  0.62378722  0.20162829    -0.18600
C2231       C  0.88068283  0.59267950  0.21381337    -0.20400
C2232       C  0.89174827  0.57591091  0.21272073    -0.13000
C2233       C  0.90381936  0.57296097  0.19842527     0.03700
C2234       C  0.90446665  0.58698654  0.18518692    -0.25100
H2235       H  0.88549997  0.64495105  0.16375666     0.08800
H2236       H  0.90405909  0.61568776  0.16206931     0.12400
H2237       H  0.86150953  0.62596979  0.21266789     0.12300
H2238       H  0.87154357  0.59468262  0.22498035     0.12100
H2239       H  0.89098625  0.56537162  0.22312675     0.12600
H2240       H  0.91367522  0.58503984  0.17404972     0.14600
loop_ 
_geom_bond_atom_site_label_1 
_geom_bond_atom_site_label_2 
_geom_bond_distance 
_geom_bond_site_symmetry_2 
_ccdc_geom_bond_type 
N1            N2   1.320       .  A
N1            C5   1.342       .  A
N1           Cu9   2.059       .  S
N2            C3   1.345       .  A
N2           Cu8   2.066       .  S
C3            C4   1.384       .  A
C3            H6   1.082       .  S
C4            C5   1.383       .  A
C4         C2209   1.474       .  S
C5            H7   1.082       .  S
Cu8          N11   2.067       .  S
Cu9          N19   2.060       .  S
Cu10         N12   2.070       .  S
Cu10         N18   2.069       .  S
N11          N12   1.323       .  A
N11          C15   1.341       .  A
N12          C13   1.345       .  A
C13          C14   1.382       .  A
C13          H16   1.082       .  S
C14          C15   1.381       .  A
C14          C38   1.466       .  S
C15          H17   1.082       .  S
N18          N19   1.320       .  A
N18          C22   1.346       .  A
N19          C20   1.339       .  A
C20          C21   1.387       .  A
C20          H23   1.080       .  S
C21          C22   1.389       .  A
C21        C2225   1.484       .  S
C22          H24   1.081       .  S
N25          N26   1.323       .  A
N25          C29   1.345       .  A
N25         Cu33   2.082       .  S
N26          C27   1.346       .  A
N26         Cu32   2.078       .  S
C27          C28   1.386       .  A
C27          H30   1.082       .  S
C28          C29   1.386       .  A
C28        C2185   1.482       .  S
C29          H31   1.082       .  S
Cu32         N35   2.077       .  S
Cu33         N43   2.082       .  S
Cu34         N36   2.058       .  S
Cu34         N42   2.059       .  S
N35          N36   1.322       .  A
N35          C39   1.347       .  A
N36          C37   1.341       .  A
C37          C38   1.379       .  A
C37          H40   1.082       .  S
C38          C39   1.384       .  A
C39          H41   1.082       .  S
N42          N43   1.319       .  A
N42          C46   1.344       .  A
N43          C44   1.345       .  A
C44          C45   1.392       .  A
C44          H47   1.081       .  S
C45          C46   1.386       .  A
C45        C2193   1.488       .  S
C46          H48   1.081       .  S
C49          N50   1.355       .  A
C49          N54   1.359       .  A
C49        C2145   1.483       .  S
N50          C51   1.355       .  A
C51          N52   1.360       .  A
C51        C2129   1.472       .  S
N52          C53   1.362       .  A
C53          N54   1.360       .  A
C53        C2161   1.470       .  S
C55          N56   1.358       .  A
C55          N60   1.353       .  A
C55        C2233   1.481       .  S
N56          C57   1.363       .  A
C57          N58   1.364       .  A
C57        C2169   1.482       .  S
N58          C59   1.359       .  A
C59          N60   1.351       .  A
C59        C2113   1.468       .  S
N61          N62   1.320       .  A
N61          C65   1.345       .  A
N61         Cu69   2.075       .  S
N62          C63   1.343       .  A
N62         Cu68   2.058       .  S
C63          C64   1.384       .  A
C63          H66   1.082       .  S
C64          C65   1.388       .  A
C64        C2105   1.480       .  S
C65          H67   1.082       .  S
Cu68         N71   2.058       .  S
Cu69         N79   2.076       .  S
Cu70         N72   2.080       .  S
Cu70         N78   2.080       .  S
N71          N72   1.322       .  A
N71          C75   1.343       .  A
N72          C73   1.346       .  A
C73          C74   1.385       .  A
C73          H76   1.082       .  S
C74          C75   1.379       .  A
C74          C98   1.469       .  S
C75          H77   1.082       .  S
N78          N79   1.322       .  A
N78          C82   1.346       .  A
N79          C80   1.343       .  A
C80          C81   1.388       .  A
C80          H83   1.081       .  S
C81          C82   1.389       .  A
C81        C2153   1.487       .  S
C82          H84   1.081       .  S
N85          N86   1.322       .  A
N85          C89   1.345       .  A
N85         Cu93   2.082       .  S
N86          C87   1.344       .  A
N86         Cu92   2.061       .  S
C87          C88   1.383       .  A
C87          H90   1.082       .  S
C88          C89   1.386       .  A
C88        C2073   1.477       .  S
C89          H91   1.082       .  S
Cu92         N95   2.061       .  S
Cu93        N103   2.083       .  S
Cu94         N96   2.086       .  S
Cu94        N102   2.087       .  S
N95          N96   1.323       .  A
N95          C99   1.343       .  A
N96          C97   1.346       .  A
C97          C98   1.385       .  A
C97         H100   1.082       .  S
C98          C99   1.379       .  A
C99         H101   1.082       .  S
N102        N103   1.322       .  A
N102        C106   1.347       .  A
N103        C104   1.346       .  A
C104        C105   1.390       .  A
C104        H107   1.081       .  S
C105        C106   1.390       .  A
C105       C2081   1.493       .  S
C106        H108   1.081       .  S
C109        N110   1.365       .  A
C109        N114   1.358       .  A
C109       C2089   1.494       .  S
N110        C111   1.367       .  A
C111        N112   1.362       .  A
C111       C2057   1.483       .  S
N112        C113   1.358       .  A
C113        N114   1.355       .  A
C113       C2041   1.476       .  S
C115        N116   1.357       .  A
C115        N120   1.364       .  A
C115       C2201   1.485       .  S
N116        C117   1.354       .  A
C117        N118   1.358       .  A
C117       C2025   1.483       .  S
N118        C119   1.362       .  A
C119        N120   1.366       .  A
C119       C2049   1.483       .  S
N121        N122   1.321       .  A
N121        C125   1.346       .  A
N121       Cu129   2.083       .  S
N122        C123   1.342       .  A
N122       Cu128   2.058       .  S
C123        C124   1.382       .  A
C123        H126   1.082       .  S
C124        C125   1.388       .  A
C124       C1985   1.478       .  S
C125        H127   1.082       .  S
Cu128       N131   2.058       .  S
Cu129       N139   2.084       .  S
Cu130       N132   2.076       .  S
Cu130       N138   2.076       .  S
N131        N132   1.321       .  A
N131        C135   1.343       .  A
N132        C133   1.345       .  A
C133        C134   1.384       .  A
C133        H136   1.082       .  S
C134        C135   1.380       .  A
C134        C158   1.468       .  S
C135        H137   1.082       .  S
N138        N139   1.322       .  A
N138        C142   1.346       .  A
N139        C140   1.345       .  A
C140        C141   1.389       .  A
C140        H143   1.081       .  S
C141        C142   1.387       .  A
C141       C2001   1.488       .  S
C142        H144   1.081       .  S
N145        N146   1.321       .  A
N145        C149   1.345       .  A
N145       Cu153   2.074       .  S
N146        C147   1.343       .  A
N146       Cu152   2.061       .  S
C147        C148   1.382       .  A
C147        H150   1.082       .  S
C148        C149   1.386       .  A
C148       C1953   1.475       .  S
C149        H151   1.082       .  S
Cu152       N155   2.061       .  S
Cu153       N163   2.074       .  S
Cu154       N156   2.075       .  S
Cu154       N162   2.075       .  S
N155        N156   1.322       .  A
N155        C159   1.343       .  A
N156        C157   1.345       .  A
C157        C158   1.384       .  A
C157        H160   1.082       .  S
C158        C159   1.380       .  A
C159        H161   1.082       .  S
N162        N163   1.322       .  A
N162        C166   1.345       .  A
N163        C164   1.344       .  A
C164        C165   1.387       .  A
C164        H167   1.081       .  S
C165        C166   1.387       .  A
C165       C1969   1.484       .  S
C166        H168   1.081       .  S
C169        N170   1.354       .  A
C169        N174   1.362       .  A
C169       C1921   1.481       .  S
N170        C171   1.352       .  A
C171        N172   1.355       .  A
C171       C1905   1.473       .  S
N172        C173   1.362       .  A
C173        N174   1.365       .  A
C173       C1937   1.478       .  S
C175        N176   1.358       .  A
C175        N180   1.357       .  A
C175       C1977   1.484       .  S
N176        C177   1.360       .  A
C177        N178   1.360       .  A
C177       C1945   1.474       .  S
N178        C179   1.359       .  A
C179        N180   1.357       .  A
C179       C1889   1.473       .  S
N181        N182   1.323       .  A
N181        C185   1.344       .  A
N181       Cu189   2.075       .  S
N182        C183   1.348       .  A
N182       Cu188   2.089       .  S
C183        C184   1.387       .  A
C183        H186   1.082       .  S
C184        C185   1.385       .  A
C184       C1857   1.483       .  S
C185        H187   1.082       .  S
Cu188       N191   2.089       .  S
Cu189       N199   2.073       .  S
Cu190       N192   2.057       .  S
Cu190       N198   2.056       .  S
N191        N192   1.322       .  A
N191        C195   1.348       .  A
N192        C193   1.342       .  A
C193        C194   1.379       .  A
C193        H196   1.082       .  S
C194        C195   1.387       .  A
C194        C218   1.471       .  S
C195        H197   1.082       .  S
N198        N199   1.320       .  A
N198        C202   1.342       .  A
N199        C200   1.344       .  A
C200        C201   1.387       .  A
C200        H203   1.082       .  S
C201        C202   1.383       .  A
C201       C1873   1.478       .  S
C202        H204   1.082       .  S
N205        N206   1.322       .  A
N205        C209   1.345       .  A
N205       Cu213   2.079       .  S
N206        C207   1.346       .  A
N206       Cu212   2.082       .  S
C207        C208   1.387       .  A
C207        H210   1.082       .  S
C208        C209   1.388       .  A
C208       C1849   1.486       .  S
C209        H211   1.082       .  S
Cu212       N215   2.083       .  S
Cu213       N223   2.079       .  S
Cu214       N216   2.060       .  S
Cu214       N222   2.059       .  S
N215        N216   1.322       .  A
N215        C219   1.345       .  A
N216        C217   1.345       .  A
C217        C218   1.381       .  A
C217        H220   1.082       .  S
C218        C219   1.386       .  A
C219        H221   1.082       .  S
N222        N223   1.321       .  A
N222        C226   1.343       .  A
N223        C224   1.345       .  A
C224        C225   1.390       .  A
C224        H227   1.081       .  S
C225        C226   1.384       .  A
C225       C1929   1.483       .  S
C226        H228   1.081       .  S
C229        N230   1.354       .  A
C229        N234   1.357       .  A
C229       C1881   1.480       .  S
N230        C231   1.356       .  A
C231        N232   1.361       .  A
C231       C1809   1.480       .  S
N232        C233   1.362       .  A
C233        N234   1.360       .  A
C233       C1825   1.477       .  S
C235        N236   1.364       .  A
C235        N240   1.357       .  A
C235       C2009   1.483       .  S
N236        C237   1.365       .  A
C237        N238   1.362       .  A
C237       C1833   1.477       .  S
N238        C239   1.355       .  A
C239        N240   1.353       .  A
C239       C1793   1.475       .  S
C241        N242   1.364       .  A
C241        N246   1.364       .  A
C241       C1761   1.486       .  S
N242        C243   1.359       .  A
C243        N244   1.354       .  A
C243       C1745   1.479       .  S
N244        C245   1.354       .  A
C245        N246   1.360       .  A
C245       C1777   1.477       .  S
C247        N248   1.362       .  A
C247        N252   1.358       .  A
C247       C1737   1.485       .  S
N248        C249   1.363       .  A
C249        N250   1.359       .  A
C249       C1785   1.472       .  S
N250        C251   1.357       .  A
C251        N252   1.354       .  A
C251       C1721   1.480       .  S
N253        N254   1.320       .  A
N253        C257   1.343       .  A
N253       Cu261   2.061       .  S
N254        C255   1.344       .  A
N254       Cu260   2.070       .  S
C255        C256   1.386       .  A
C255        H258   1.082       .  S
C256        C257   1.384       .  A
C256       C1681   1.476       .  S
C257        H259   1.082       .  S
Cu260       N263   2.071       .  S
Cu261       N271   2.061       .  S
Cu262       N264   2.081       .  S
Cu262       N270   2.080       .  S
N263        N264   1.324       .  A
N263        C267   1.345       .  A
N264        C265   1.344       .  A
C265        C266   1.382       .  A
C265        H268   1.082       .  S
C266        C267   1.381       .  A
C266        C290   1.469       .  S
C267        H269   1.082       .  S
N270        N271   1.320       .  A
N270        C274   1.350       .  A
N271        C272   1.338       .  A
C272        C273   1.386       .  A
C272        H275   1.080       .  S
C273        C274   1.392       .  A
C273       C1697   1.488       .  S
C274        H276   1.081       .  S
N277        N278   1.320       .  A
N277        C281   1.343       .  A
N277       Cu285   2.069       .  S
N278        C279   1.345       .  A
N278       Cu284   2.064       .  S
C279        C280   1.383       .  A
C279        H282   1.082       .  S
C280        C281   1.384       .  A
C280       C1913   1.473       .  S
C281        H283   1.082       .  S
Cu284       N287   2.065       .  S
Cu285       N295   2.070       .  S
Cu286       N288   2.079       .  S
Cu286       N294   2.079       .  S
N287        N288   1.323       .  A
N287        C291   1.343       .  A
N288        C289   1.346       .  A
C289        C290   1.384       .  A
C289        H292   1.082       .  S
C290        C291   1.380       .  A
C291        H293   1.082       .  S
N294        N295   1.322       .  A
N294        C298   1.348       .  A
N295        C296   1.342       .  A
C296        C297   1.385       .  A
C296        H299   1.082       .  S
C297        C298   1.388       .  A
C297       C1769   1.482       .  S
C298        H300   1.082       .  S
N301        N302   1.321       .  A
N301        C305   1.346       .  A
N301       Cu309   2.081   1_455  S
N302        C303   1.345       .  A
N302       Cu308   2.063       .  S
C303        C304   1.384       .  A
C303        H306   1.082       .  S
C304        C305   1.388       .  A
C304       C1657   1.480       .  S
C305        H307   1.082       .  S
Cu308       N311   2.063       .  S
Cu309       N319   2.081       .  S
Cu310       N312   2.073   1_655  S
Cu310       N318   2.074       .  S
N311        N312   1.322       .  A
N311        C315   1.342       .  A
N312        C313   1.345       .  A
C313        C314   1.384       .  A
C313        H316   1.082   1_455  S
C314        C315   1.380       .  A
C314        C338   1.467       .  S
C315        H317   1.082       .  S
N318        N319   1.322       .  A
N318        C322   1.346       .  A
N319        C320   1.344       .  A
C320        C321   1.388       .  A
C320        H323   1.081       .  S
C321        C322   1.387       .  A
C321       C1673   1.486       .  S
C322        H324   1.081       .  S
N325        N326   1.320       .  A
N325        C329   1.347       .  A
N325       Cu333   2.080       .  S
N326        C327   1.342       .  A
N326       Cu332   2.062       .  S
C327        C328   1.384       .  A
C327        H330   1.082       .  S
C328        C329   1.389       .  A
C328       C2137   1.482       .  S
C329        H331   1.082       .  S
Cu332       N335   2.062       .  S
Cu333       N343   2.080       .  S
Cu334       N336   2.069       .  S
Cu334       N342   2.069       .  S
N335        N336   1.322       .  A
N335        C339   1.343       .  A
N336        C337   1.343       .  A
C337        C338   1.383       .  A
C337        H340   1.082       .  S
C338        C339   1.381       .  A
C339        H341   1.082       .  S
N342        N343   1.323       .  A
N342        C346   1.346       .  A
N343        C344   1.342       .  A
C344        C345   1.386       .  A
C344        H347   1.082       .  S
C345        C346   1.384       .  A
C345       C1729   1.479       .  S
C346        H348   1.082       .  S
C349        N350   1.363       .  A
C349        N354   1.359       .  A
C349       C1665   1.486       .  S
N350        C351   1.363       .  A
C351        N352   1.357       .  A
C351       C1633   1.475       .  S
N352        C353   1.354       .  A
C353        N354   1.355       .  A
C353       C1993   1.475       .  S
C355        N356   1.359       .  A
C355        N360   1.359       .  A
C355       C1705   1.485       .  S
N356        C357   1.360       .  A
C357        N358   1.360       .  A
C357       C1641   1.473       .  S
N358        C359   1.358       .  A
C359        N360   1.356       .  A
C359       C2177   1.479       .  S
C361        N362   1.358       .  A
C361        N366   1.362       .  A
C361       C1601   1.489       .  S
N362        C363   1.356       .  A
C363        N364   1.359       .  A
C363       C1865   1.482       .  S
N364        C365   1.362       .  A
C365        N366   1.364       .  A
C365       C1617   1.480       .  S
C367        N368   1.362       .  A
C367        N372   1.359       .  A
C367       C1585   1.486       .  S
N368        C369   1.362       .  A
C369        N370   1.358       .  A
C369       C1625   1.478       .  S
N370        C371   1.357       .  A
C371        N372   1.357       .  A
C371       C2065   1.477       .  S
N373        N374   1.321       .  A
N373        C377   1.344       .  A
N373       Cu381   2.075       .  S
N374        C375   1.346       .  A
N374       Cu380   2.073       .  S
C375        C376   1.386       .  A
C375        H378   1.082       .  S
C376        C377   1.387       .  A
C376       C1569   1.483       .  S
C377        H379   1.082       .  S
Cu380       N383   2.073       .  S
Cu381       N391   2.075   1_455  S
Cu382       N384   2.087   1_655  S
Cu382       N390   2.086       .  S
N383        N384   1.324       .  A
N383        C387   1.347       .  A
N384        C385   1.345       .  A
C385        C386   1.385       .  A
C385        H388   1.082   1_556  S
C386        C387   1.382       .  A
C386        C410   1.474   1_556  S
C387        H389   1.082       .  S
N390        N391   1.321       .  A
N390        C394   1.349       .  A
N391        C392   1.343       .  A
C392        C393   1.389       .  A
C392        H395   1.080       .  S
C393        C394   1.392       .  A
C393       C1609   1.494       .  S
C394        H396   1.081       .  S
N397        N398   1.319       .  A
N397        C401   1.348       .  A
N397       Cu405   2.068       .  S
N398        C399   1.338       .  A
N398       Cu404   2.056       .  S
C399        C400   1.382       .  A
C399        H402   1.082       .  S
C400        C401   1.387       .  A
C400       C2121   1.476       .  S
C401        H403   1.082       .  S
Cu404       N407   2.057       .  S
Cu405       N415   2.071       .  S
Cu406       N408   2.090       .  S
Cu406       N414   2.091       .  S
N407        N408   1.321       .  A
N407        C411   1.341       .  A
N408        C409   1.349       .  A
C409        C410   1.389       .  A
C409        H412   1.082   1_554  S
C410        C411   1.379       .  A
C411        H413   1.082       .  S
N414        N415   1.324       .  A
N414        C418   1.348       .  A
N415        C416   1.341       .  A
C416        C417   1.384       .  A
C416        H419   1.081       .  S
C417        C418   1.390       .  A
C417       C1561   1.485       .  S
C418        H420   1.081       .  S
N421        N422   1.321       .  A
N421        C425   1.342       .  A
N421       Cu429   2.068       .  S
N422        C423   1.348       .  A
N422       Cu428   2.076       .  S
C423        C424   1.387       .  A
C423        H426   1.082       .  S
C424        C425   1.384       .  A
C424       C1545   1.480       .  S
C425        H427   1.082       .  S
Cu428       N431   2.077       .  S
Cu429       N439   2.068       .  S
Cu430       N432   2.072       .  S
Cu430       N438   2.072       .  S
N431        N432   1.324       .  A
N431        C435   1.343       .  A
N432        C433   1.345       .  A
C433        C434   1.381       .  A
C433        H436   1.082   1_554  S
C434        C435   1.382       .  A
C434        C458   1.468   1_554  S
C435        H437   1.082       .  S
N438        N439   1.320       .  A
N438        C442   1.346       .  A
N439        C440   1.342       .  A
C440        C441   1.386       .  A
C440        H443   1.081       .  S
C441        C442   1.388       .  A
C441       C1593   1.484       .  S
C442        H444   1.081       .  S
N445        N446   1.322       .  A
N445        C449   1.343       .  A
N445       Cu453   2.072       .  S
N446        C447   1.346       .  A
N446       Cu452   2.076       .  S
C447        C448   1.386       .  A
C447        H450   1.082       .  S
C448        C449   1.385       .  A
C448       C1897   1.480       .  S
C449        H451   1.082       .  S
Cu452       N455   2.077       .  S
Cu453       N463   2.072       .  S
Cu454       N456   2.063       .  S
Cu454       N462   2.062       .  S
N455        N456   1.323       .  A
N455        C459   1.346       .  A
N456        C457   1.342       .  A
C457        C458   1.379       .  A
C457        H460   1.082   1_556  S
C458        C459   1.384       .  A
C459        H461   1.082       .  S
N462        N463   1.320       .  A
N462        C466   1.345       .  A
N463        C464   1.343       .  A
C464        C465   1.387       .  A
C464        H467   1.082       .  S
C465        C466   1.385       .  A
C465       C1521   1.481       .  S
C466        H468   1.082       .  S
C469        N470   1.361       .  A
C469        N474   1.356       .  A
C469       C1529   1.484       .  S
N470        C471   1.363       .  A
C471        N472   1.361       .  A
C471       C1505   1.476       .  S
N472        C473   1.358       .  A
C473        N474   1.354       .  A
C473       C1489   1.478       .  S
C475        N476   1.357       .  A
C475        N480   1.358       .  A
C475       C1553   1.484       .  S
N476        C477   1.357       .  A
C477        N478   1.362       .  A
C477       C1481   1.484       .  S
N478        C479   1.362       .  A
C479        N480   1.360       .  A
C479       C1513   1.479       .  S
N481        N482   1.324       .  A
N481        C485   1.345       .  A
N481       Cu489   2.077       .  S
N482        C483   1.347       .  A
N482       Cu488   2.082       .  S
C483        C484   1.383       .  A
C483        H486   1.082       .  S
C484        C485   1.383       .  A
C484       C1473   1.475       .  S
C485        H487   1.082       .  S
Cu488       N491   2.082       .  S
Cu489       N499   2.076       .  S
Cu490       N492   2.058       .  S
Cu490       N498   2.057       .  S
N491        N492   1.322       .  A
N491        C495   1.347       .  A
N492        C493   1.342       .  A
C493        C494   1.379       .  A
C493        H496   1.082       .  S
C494        C495   1.386       .  A
C494        C518   1.470       .  S
C495        H497   1.082       .  S
N498        N499   1.320       .  A
N498        C502   1.343       .  A
N499        C500   1.343       .  A
C500        C501   1.390       .  A
C500        H503   1.081       .  S
C501        C502   1.385       .  A
C501       C1465   1.483       .  S
C502        H504   1.081       .  S
N505        N506   1.323       .  A
N505        C509   1.346       .  A
N505       Cu513   2.084       .  S
N506        C507   1.346       .  A
N506       Cu512   2.078       .  S
C507        C508   1.386       .  A
C507        H510   1.082       .  S
C508        C509   1.386       .  A
C508       C1425   1.482       .  S
C509        H511   1.082       .  S
Cu512       N515   2.077       .  S
Cu513       N523   2.085       .  S
Cu514       N516   2.068       .  S
Cu514       N522   2.069       .  S
N515        N516   1.322       .  A
N515        C519   1.344       .  A
N516        C517   1.346       .  A
C517        C518   1.382       .  A
C517        H520   1.082       .  S
C518        C519   1.384       .  A
C519        H521   1.082       .  S
N522        N523   1.321       .  A
N522        C526   1.343       .  A
N523        C524   1.347       .  A
C524        C525   1.391       .  A
C524        H527   1.081       .  S
C525        C526   1.387       .  A
C525       C1441   1.490       .  S
C526        H528   1.081       .  S
C529        N530   1.354       .  A
C529        N534   1.360       .  A
C529       C1393   1.485       .  S
N530        C531   1.354       .  A
C531        N532   1.361       .  A
C531       C1537   1.480       .  S
N532        C533   1.364       .  A
C533        N534   1.364       .  A
C533       C1417   1.478       .  S
C535        N536   1.364       .  A
C535        N540   1.358       .  A
C535       C1449   1.488       .  S
N536        C537   1.363       .  A
C537        N538   1.359       .  A
C537       C1409   1.481       .  S
N538        C539   1.357       .  A
C539        N540   1.357       .  A
C539       C1689   1.477       .  S
N541        N542   1.321       .  A
N541        C545   1.345       .  A
N541       Cu549   2.065       .  S
N542        C543   1.345       .  A
N542       Cu548   2.075       .  S
C543        C544   1.385       .  A
C543        H546   1.082       .  S
C544        C545   1.384       .  A
C544       C1713   1.476       .  S
C545        H547   1.082       .  S
Cu548       N551   2.077       .  S
Cu549       N559   2.066       .  S
Cu550       N552   2.081       .  S
Cu550       N558   2.081       .  S
N551        N552   1.323       .  A
N551        C555   1.343       .  A
N552        C553   1.349       .  A
C553        C554   1.385       .  A
C553        H556   1.082       .  S
C554        C555   1.383       .  A
C554        C578   1.474       .  S
C555        H557   1.082       .  S
N558        N559   1.322       .  A
N558        C562   1.347       .  A
N559        C560   1.341       .  A
C560        C561   1.384       .  A
C560        H563   1.081       .  S
C561        C562   1.389       .  A
C561       C1385   1.483       .  S
C562        H564   1.081       .  S
N565        N566   1.323       .  A
N565        C569   1.343       .  A
N565       Cu573   2.069       .  S
N566        C567   1.347       .  A
N566       Cu572   2.086       .  S
C567        C568   1.387       .  A
C567        H570   1.082       .  S
C568        C569   1.383       .  A
C568       C1369   1.480       .  S
C569        H571   1.082       .  S
Cu572       N575   2.087       .  S
Cu573       N583   2.068       .  S
Cu574       N576   2.071       .  S
Cu574       N582   2.070       .  S
N575        N576   1.323       .  A
N575        C579   1.349       .  A
N576        C577   1.342       .  A
C577        C578   1.381       .  A
C577        H580   1.082       .  S
C578        C579   1.387       .  A
C579        H581   1.082       .  S
N582        N583   1.320       .  A
N582        C586   1.346       .  A
N583        C584   1.343       .  A
C584        C585   1.388       .  A
C584        H587   1.081       .  S
C585        C586   1.387       .  A
C585       C1401   1.484       .  S
C586        H588   1.082       .  S
C589        N590   1.359       .  A
C589        N594   1.355       .  A
C589       C1377   1.483       .  S
N590        C591   1.360       .  A
C591        N592   1.363       .  A
C591       C1337   1.482       .  S
N592        C593   1.363       .  A
C593        N594   1.357       .  A
C593       C1353   1.482       .  S
C595        N596   1.354       .  A
C595        N600   1.358       .  A
C595       C1457   1.479       .  S
N596        C597   1.354       .  A
C597        N598   1.360       .  A
C597       C1313   1.481       .  S
N598        C599   1.364       .  A
C599        N600   1.361       .  A
C599       C1345   1.471       .  S
N601        N602   1.323       .  A
N601        C605   1.345       .  A
N601       Cu609   2.079       .  S
N602        C603   1.345       .  A
N602       Cu608   2.075       .  S
C603        C604   1.385       .  A
C603        H606   1.082       .  S
C604        C605   1.386       .  A
C604       C1281   1.481       .  S
C605        H607   1.082       .  S
Cu608       N611   2.075       .  S
Cu609       N619   2.079       .  S
Cu610       N612   2.066       .  S
Cu610       N618   2.066       .  S
N611        N612   1.322       .  A
N611        C615   1.346   1_565  A
N612        C613   1.343       .  A
C613        C614   1.382   1_565  A
C613        H616   1.082       .  S
C614        C615   1.384       .  A
C614        C638   1.471   1_556  S
C615        H617   1.082       .  S
N618        N619   1.321       .  A
N618        C622   1.343       .  A
N619        C620   1.345       .  A
C620        C621   1.390       .  A
C620        H623   1.081       .  S
C621        C622   1.386       .  A
C621       C1305   1.485       .  S
C622        H624   1.081       .  S
N625        N626   1.321       .  A
N625        C629   1.346       .  A
N625       Cu633   2.083       .  S
N626        C627   1.345       .  A
N626       Cu632   2.071       .  S
C627        C628   1.386       .  A
C627        H630   1.082       .  S
C628        C629   1.389       .  A
C628       C2033   1.485       .  S
C629        H631   1.082       .  S
Cu632       N635   2.071       .  S
Cu633       N643   2.084       .  S
Cu634       N636   2.078       .  S
Cu634       N642   2.079       .  S
N635        N636   1.323       .  A
N635        C639   1.344       .  A
N636        C637   1.346       .  A
C637        C638   1.384       .  A
C637        H640   1.082   1_554  S
C638        C639   1.382       .  A
C639        H641   1.082       .  S
N642        N643   1.322       .  A
N642        C646   1.347       .  A
N643        C644   1.345       .  A
C644        C645   1.388       .  A
C644        H647   1.081       .  S
C645        C646   1.387       .  A
C645       C1273   1.487       .  S
C646        H648   1.082       .  S
C649        N650   1.362       .  A
C649        N654   1.352       .  A
C649       C1233   1.486       .  S
N650        C651   1.366       .  A
C651        N652   1.363       .  A
C651       C1249   1.480       .  S
N652        C653   1.358       .  A
C653        N654   1.352       .  A
C653       C2217   1.477       .  S
C655        N656   1.355       .  A
C655        N660   1.361       .  A
C655       C1297   1.484       .  S
N656        C657   1.354       .  A
C657        N658   1.358       .  A
C657       C1961   1.474       .  S
N658        C659   1.362       .  A
C659        N660   1.364       .  A
C659       C1257   1.481       .  S
N661        N662   1.323       .  A
N661        C665   1.347       .  A
N661       Cu669   2.091       .  S
N662        C663   1.345       .  A
N662       Cu668   2.069       .  S
C663        C664   1.382       .  A
C663        H666   1.082       .  S
C664        C665   1.388       .  A
C664       C1321   1.479       .  S
C665        H667   1.082       .  S
Cu668       N671   2.069       .  S
Cu669       N679   2.091   1_455  S
Cu670       N672   2.069   1_655  S
Cu670       N678   2.069       .  S
N671        N672   1.321       .  A
N671        C675   1.344       .  A
N672        C673   1.345       .  A
C673        C674   1.383       .  A
C673        H676   1.082   1_554  S
C674        C675   1.383       .  A
C674        C698   1.470   1_564  S
C675        H677   1.082       .  S
N678        N679   1.321       .  A
N678        C682   1.343       .  A
N679        C680   1.347       .  A
C680        C681   1.393       .  A
C680        H683   1.081       .  S
C681        C682   1.387       .  A
C681       C1241   1.491       .  S
C682        H684   1.081       .  S
N685        N686   1.321       .  A
N685        C689   1.341       .  A
N685       Cu693   2.062       .  S
N686        C687   1.347       .  A
N686       Cu692   2.077       .  S
C687        C688   1.386       .  A
C687        H690   1.082       .  S
C688        C689   1.383       .  A
C688       C1817   1.477       .  S
C689        H691   1.082       .  S
Cu692       N695   2.079       .  S
Cu693       N703   2.062       .  S
Cu694       N696   2.072       .  S
Cu694       N702   2.071       .  S
N695        N696   1.324       .  A
N695        C699   1.346       .  A
N696        C697   1.344       .  A
C697        C698   1.381       .  A
C697        H700   1.082   1_556  S
C698        C699   1.383       .  A
C699        H701   1.082   1_545  S
N702        N703   1.320       .  A
N702        C706   1.346       .  A
N703        C704   1.342       .  A
C704        C705   1.386       .  A
C704        H707   1.081       .  S
C705        C706   1.388       .  A
C705       C1225   1.482       .  S
C706        H708   1.081       .  S
C709        N710   1.364       .  A
C709        N714   1.358       .  A
C709       C1265   1.489       .  S
N710        C711   1.365       .  A
C711        N712   1.360       .  A
C711       C1209   1.479       .  S
N712        C713   1.356       .  A
C713        N714   1.355       .  A
C713       C1361   1.474       .  S
C715        N716   1.360       .  A
C715        N720   1.354       .  A
C715       C1217   1.484       .  S
N716        C717   1.364       .  A
C717        N718   1.363       .  A
C717       C1201   1.479       .  S
N718        C719   1.359       .  A
C719        N720   1.353       .  A
C719       C1193   1.475       .  S
N721        N722   1.321       .  A
N721        C725   1.346       .  A
N721       Cu729   2.076       .  S
N722        C723   1.343       .  A
N722       Cu728   2.068       .  S
C723        C724   1.384       .  A
C723        H726   1.082       .  S
C724        C725   1.387       .  A
C724       C1497   1.479       .  S
C725        H727   1.082       .  S
Cu728       N731   2.070       .  S
Cu729       N739   2.077       .  S
Cu730       N732   2.095       .  S
Cu730       N738   2.094       .  S
N731        N732   1.323       .  A
N731        C735   1.346       .  A
N732        C733   1.348       .  A
C733        C734   1.388       .  A
C733        H736   1.082       .  S
C734        C735   1.382       .  A
C734        C758   1.478       .  S
C735        H737   1.082       .  S
N738        N739   1.322       .  A
N738        C742   1.350       .  A
N739        C740   1.343       .  A
C740        C741   1.388       .  A
C740        H743   1.081       .  S
C741        C742   1.392       .  A
C741       C1169   1.493       .  S
C742        H744   1.081       .  S
N745        N746   1.322       .  A
N745        C749   1.347       .  A
N745       Cu753   2.082       .  S
N746        C747   1.345       .  A
N746       Cu752   2.071       .  S
C747        C748   1.384       .  A
C747        H750   1.082       .  S
C748        C749   1.385       .  A
C748       C1137   1.478       .  S
C749        H751   1.082       .  S
Cu752       N755   2.071       .  S
Cu753       N763   2.083       .  S
Cu754       N756   2.097       .  S
Cu754       N762   2.098       .  S
N755        N756   1.323       .  A
N755        C759   1.345       .  A
N756        C757   1.349       .  A
C757        C758   1.389       .  A
C757        H760   1.082       .  S
C758        C759   1.381       .  A
C759        H761   1.082       .  S
N762        N763   1.323       .  A
N762        C766   1.348       .  A
N763        C764   1.347       .  A
C764        C765   1.389       .  A
C764        H767   1.081       .  S
C765        C766   1.392       .  A
C765       C1153   1.495       .  S
C766        H768   1.081       .  S
C769        N770   1.357       .  A
C769        N774   1.364       .  A
C769       C1105   1.488       .  S
N770        C771   1.355       .  A
C771        N772   1.358       .  A
C771       C1577   1.477       .  S
N772        C773   1.361       .  A
C773        N774   1.364       .  A
C773       C1121   1.480       .  S
C775        N776   1.363       .  A
C775        N780   1.359       .  A
C775       C1161   1.494       .  S
N776        C777   1.365       .  A
C777        N778   1.361       .  A
C777       C1129   1.487       .  S
N778        C779   1.359       .  A
C779        N780   1.358       .  A
C779       C1649   1.483       .  S
C781        N782   1.354       .  A
C781        N786   1.361       .  A
C781       C1073   1.478       .  S
N782        C783   1.353       .  A
C783        N784   1.357       .  A
C783       C1065   1.471       .  S
N784        C785   1.362       .  A
C785        N786   1.363       .  A
C785       C1089   1.476       .  S
C787        N788   1.359       .  A
C787        N792   1.364       .  A
C787       C1177   1.490       .  S
N788        C789   1.357       .  A
C789        N790   1.357       .  A
C789       C1289   1.479       .  S
N790        C791   1.359       .  A
C791        N792   1.363       .  A
C791       C1097   1.479       .  S
N793        N794   1.321       .  A
N793        C797   1.344       .  A
N793       Cu801   2.079       .  S
N794        C795   1.345       .  A
N794       Cu800   2.069       .  S
C795        C796   1.386       .  A
C795        H798   1.082       .  S
C796        C797   1.388       .  A
C796       C1185   1.483       .  S
C797        H799   1.081       .  S
Cu800       N803   2.069       .  S
Cu801       N811   2.079       .  S
Cu802       N804   2.071       .  S
Cu802       N810   2.071       .  S
N803        N804   1.322       .  A
N803        C807   1.344       .  A
N804        C805   1.344       .  A
C805        C806   1.382       .  A
C805        H808   1.082       .  S
C806        C807   1.382       .  A
C806        C830   1.468       .  S
C807        H809   1.082       .  S
N810        N811   1.320       .  A
N810        C814   1.344       .  A
N811        C812   1.345       .  A
C812        C813   1.391       .  A
C812        H815   1.081       .  S
C813        C814   1.389       .  A
C813       C1113   1.491       .  S
C814        H816   1.081       .  S
N817        N818   1.322       .  A
N817        C821   1.345       .  A
N817       Cu825   2.069       .  S
N818        C819   1.344       .  A
N818       Cu824   2.070       .  S
C819        C820   1.384       .  A
C819        H822   1.082       .  S
C820        C821   1.384       .  A
C820       C1753   1.476       .  S
C821        H823   1.082       .  S
Cu824       N827   2.070       .  S
Cu825       N835   2.070       .  S
Cu826       N828   2.069       .  S
Cu826       N834   2.069       .  S
N827        N828   1.322       .  A
N827        C831   1.344       .  A
N828        C829   1.344       .  A
C829        C830   1.382       .  A
C829        H832   1.082       .  S
C830        C831   1.382       .  A
C831        H833   1.082       .  S
N834        N835   1.321       .  A
N834        C838   1.344       .  A
N835        C836   1.343       .  A
C836        C837   1.387       .  A
C836        H839   1.081       .  S
C837        C838   1.386       .  A
C837       C1081   1.482       .  S
C838        H840   1.081       .  S
C841        N842   1.359       .  A
C841        N846   1.363       .  A
C841       C1025   1.490       .  S
N842        C843   1.356       .  A
C843        N844   1.359       .  A
C843       C1433   1.480       .  S
N844        C845   1.362       .  A
C845        N846   1.364       .  A
C845       C1041   1.483       .  S
C847        N848   1.359       .  A
C847        N852   1.366       .  A
C847       C1009   1.491       .  S
N848        C849   1.354       .  A
C849        N850   1.357       .  A
C849       C1145   1.481       .  S
N850        C851   1.362       .  A
C851        N852   1.366       .  A
C851       C1049   1.488       .  S
C853        N854   1.358       .  A
C853        N858   1.355       .  A
C853       C2097   1.475       .  S
N854        C855   1.362       .  A
C855        N856   1.363       .  A
C855        C993   1.478       .  S
N856        C857   1.361       .  A
C857        N858   1.355       .  A
C857        C977   1.485       .  S
C859        N860   1.361       .  A
C859        N864   1.355       .  A
C859        C961   1.485       .  S
N860        C861   1.364       .  A
C861        N862   1.364       .  A
C861       C1001   1.481       .  S
N862        C863   1.360       .  A
C863        N864   1.353       .  A
C863       C1841   1.480       .  S
N865        N866   1.320       .  A
N865        C869   1.348       .  A
N865       Cu873   2.081       .  S
N866        C867   1.342       .  A
N866       Cu872   2.066       .  S
C867        C868   1.384       .  A
C867        H870   1.082       .  S
C868        C869   1.388       .  A
C868       C1801   1.481       .  S
C869        H871   1.082       .  S
Cu872       N875   2.066       .  S
Cu873       N883   2.082       .  S
Cu874       N876   2.087       .  S
Cu874       N882   2.088       .  S
N875        N876   1.323       .  A
N875        C879   1.343       .  A
N876        C877   1.348       .  A
C877        C878   1.386       .  A
C877        H880   1.082       .  S
C878        C879   1.381       .  A
C878        C902   1.473   1_565  S
C879        H881   1.082       .  S
N882        N883   1.324       .  A
N882        C886   1.349       .  A
N883        C884   1.344       .  A
C884        C885   1.386       .  A
C884        H887   1.082       .  S
C885        C886   1.388       .  A
C885       C1017   1.486       .  S
C886        H888   1.082       .  S
N889        N890   1.322       .  A
N889        C893   1.346       .  A
N889       Cu897   2.083   1_455  S
N890        C891   1.347       .  A
N890       Cu896   2.083       .  S
C891        C892   1.387       .  A
C891        H894   1.082       .  S
C892        C893   1.387       .  A
C892       C1329   1.485       .  S
C893        H895   1.082       .  S
Cu896       N899   2.083       .  S
Cu897       N907   2.082       .  S
Cu898       N900   2.072   1_655  S
Cu898       N906   2.071       .  S
N899        N900   1.323       .  A
N899        C903   1.348       .  A
N900        C901   1.343       .  A
C901        C902   1.382       .  A
C901        H904   1.082       .  S
C902        C903   1.384       .  A
C903        H905   1.082   1_545  S
N906        N907   1.321       .  A
N906        C910   1.345       .  A
N907        C908   1.346       .  A
C908        C909   1.388       .  A
C908        H911   1.082       .  S
C909        C910   1.386       .  A
C909        C985   1.484       .  S
C910        H912   1.082       .  S
N913        N914   1.322       .  A
N913        C917   1.350       .  A
N913       Cu921   2.086       .  S
N914        C915   1.343       .  A
N914       Cu920   2.069       .  S
C915        C916   1.381       .  A
C915        H918   1.082       .  S
C916        C917   1.387       .  A
C916       C2017   1.476       .  S
C917        H919   1.082       .  S
Cu920       N923   2.070       .  S
Cu921       N931   2.087       .  S
Cu922       N924   2.081       .  S
Cu922       N930   2.082       .  S
N923        N924   1.322       .  A
N923        C927   1.345       .  A
N924        C925   1.346       .  A
C925        C926   1.385       .  A
C925        H928   1.082       .  S
C926        C927   1.382       .  A
C926        C950   1.472   1_565  S
C927        H929   1.082       .  S
N930        N931   1.323       .  A
N930        C934   1.349       .  A
N931        C932   1.343       .  A
C932        C933   1.388       .  A
C932        H935   1.081       .  S
C933        C934   1.388       .  A
C933       C1033   1.487       .  S
C934        H936   1.082       .  S
N937        N938   1.322       .  A
N937        C941   1.347       .  A
N937       Cu945   2.075       .  S
N938        C939   1.342       .  A
N938       Cu944   2.068       .  S
C939        C940   1.384       .  A
C939        H942   1.082       .  S
C940        C941   1.386       .  A
C940       C1057   1.477       .  S
C941        H943   1.082       .  S
Cu944       N947   2.068       .  S
Cu945       N955   2.076       .  S
Cu946       N948   2.078       .  S
Cu946       N954   2.078       .  S
N947        N948   1.322       .  A
N947        C951   1.345       .  A
N948        C949   1.346       .  A
C949        C950   1.385       .  A
C949        H952   1.082       .  S
C950        C951   1.382       .  A
C951        H953   1.082       .  S
N954        N955   1.322       .  A
N954        C958   1.346       .  A
N955        C956   1.344       .  A
C956        C957   1.387       .  A
C956        H959   1.082       .  S
C957        C958   1.386       .  A
C957        C969   1.483       .  S
C958        H960   1.082       .  S
C961        C962   1.408       .  A
C961        C966   1.409       .  A
C962        C963   1.392       .  A
C962        H971   1.083       .  S
C963        C964   1.398       .  A
C963        H972   1.084       .  S
C964        C970   1.401       .  A
C964        C965   1.414       .  A
C965        C967   1.404       .  A
C965        C966   1.409       .  A
C966        H973   1.084       .  S
C967        C968   1.401       .  A
C967        H974   1.083       .  S
C968        C969   1.407       .  A
C968        H975   1.082       .  S
C969        C970   1.404       .  A
C970        H976   1.083       .  S
C977        C978   1.409       .  A
C977        C982   1.407       .  A
C978        C979   1.395       .  A
C978        H987   1.083       .  S
C979        C980   1.400       .  A
C979        H988   1.084       .  S
C980        C986   1.404       .  A
C980        C981   1.414       .  A
C981        C983   1.402       .  A
C981        C982   1.407       .  A
C982        H989   1.084       .  S
C983        C984   1.399       .  A
C983        H990   1.084       .  S
C984        C985   1.407       .  A
C984        H991   1.082       .  S
C985        C986   1.405       .  A
C986        H992   1.084       .  S
C993        C994   1.404       .  A
C993        C998   1.406       .  A
C994        C995   1.398       .  A
C994       H1003   1.083       .  S
C995        C996   1.403       .  A
C995       H1004   1.084       .  S
C996       C1002   1.406       .  A
C996        C997   1.415       .  A
C997        C999   1.403       .  A
C997        C998   1.406       .  A
C998       H1005   1.084       .  S
C999       C1000   1.399       .  A
C999       H1006   1.084       .  S
C1000      C1001   1.405       .  A
C1000      H1007   1.083       .  S
C1001      C1002   1.407       .  A
C1002      H1008   1.084       .  S
C1009      C1010   1.407       .  A
C1009      C1014   1.410       .  A
C1010      C1011   1.404       .  A
C1010      H1019   1.083       .  S
C1011      C1012   1.406       .  A
C1011      H1020   1.083       .  S
C1012      C1018   1.411       .  A
C1012      C1013   1.412       .  A
C1013      C1015   1.401       .  A
C1013      C1014   1.402       .  A
C1014      H1021   1.084       .  S
C1015      C1016   1.395       .  A
C1015      H1022   1.084       .  S
C1016      C1017   1.406       .  A
C1016      H1023   1.082       .  S
C1017      C1018   1.410       .  A
C1018      H1024   1.084       .  S
C1025      C1026   1.408       .  A
C1025      C1030   1.408       .  A
C1026      C1027   1.404       .  A
C1026      H1035   1.083       .  S
C1027      C1028   1.405       .  A
C1027      H1036   1.083       .  S
C1028      C1034   1.411       .  A
C1028      C1029   1.412       .  A
C1029      C1031   1.399       .  A
C1029      C1030   1.402       .  A
C1030      H1037   1.084       .  S
C1031      C1032   1.394       .  A
C1031      H1038   1.084       .  S
C1032      C1033   1.406       .  A
C1032      H1039   1.082       .  S
C1033      C1034   1.411       .  A
C1034      H1040   1.084       .  S
C1041      C1042   1.405       .  A
C1041      C1046   1.405       .  A
C1042      C1043   1.403       .  A
C1042      H1051   1.083       .  S
C1043      C1044   1.405       .  A
C1043      H1052   1.083       .  S
C1044      C1050   1.412       .  A
C1044      C1045   1.415       .  A
C1045      C1047   1.400       .  A
C1045      C1046   1.406       .  A
C1046      H1053   1.084       .  S
C1047      C1048   1.396       .  A
C1047      H1054   1.084       .  S
C1048      C1049   1.407       .  A
C1048      H1055   1.083       .  S
C1049      C1050   1.410       .  A
C1050      H1056   1.084       .  S
C1057      C1058   1.405       .  A
C1057      C1062   1.403       .  A
C1058      C1059   1.400       .  A
C1058      H1067   1.083       .  S
C1059      C1060   1.403       .  A
C1059      H1068   1.083       .  S
C1060      C1066   1.406       .  A
C1060      C1061   1.415       .  A
C1061      C1063   1.400       .  A
C1061      C1062   1.400       .  A
C1062      H1069   1.084       .  S
C1063      C1064   1.393       .  A
C1063      H1070   1.084       .  S
C1064      C1065   1.404       .  A
C1064      H1071   1.083       .  S
C1065      C1066   1.405       .  A
C1066      H1072   1.084       .  S
C1073      C1074   1.407       .  A
C1073      C1078   1.406       .  A
C1074      C1075   1.393       .  A
C1074      H1083   1.083       .  S
C1075      C1076   1.399       .  A
C1075      H1084   1.084       .  S
C1076      C1082   1.401       .  A
C1076      C1077   1.414       .  A
C1077      C1079   1.402       .  A
C1077      C1078   1.405       .  A
C1078      H1085   1.084       .  S
C1079      C1080   1.398       .  A
C1079      H1086   1.084       .  S
C1080      C1081   1.407       .  A
C1080      H1087   1.082       .  S
C1081      C1082   1.405       .  A
C1082      H1088   1.083       .  S
C1089      C1090   1.404       .  A
C1089      C1094   1.407       .  A
C1090      C1091   1.397       .  A
C1090      H1099   1.083       .  S
C1091      C1092   1.402       .  A
C1091      H1100   1.084       .  S
C1092      C1098   1.403   1_545  A
C1092      C1093   1.414       .  A
C1093      C1095   1.404       .  A
C1093      C1094   1.406       .  A
C1094      H1101   1.084       .  S
C1095      C1096   1.401   1_545  A
C1095      H1102   1.083       .  S
C1096      C1097   1.404       .  A
C1096      H1103   1.083       .  S
C1097      C1098   1.406       .  A
C1098      H1104   1.084       .  S
C1105      C1106   1.409       .  A
C1105      C1110   1.408       .  A
C1106      C1107   1.396       .  A
C1106      H1115   1.083       .  S
C1107      C1108   1.400       .  A
C1107      H1116   1.084       .  S
C1108      C1114   1.405       .  A
C1108      C1109   1.413       .  A
C1109      C1111   1.401       .  A
C1109      C1110   1.409       .  A
C1110      H1117   1.084       .  S
C1111      C1112   1.399       .  A
C1111      H1118   1.084       .  S
C1112      C1113   1.409       .  A
C1112      H1119   1.081       .  S
C1113      C1114   1.408       .  A
C1114      H1120   1.082       .  S
C1121      C1122   1.404       .  A
C1121      C1126   1.406       .  A
C1122      C1123   1.401       .  A
C1122      H1131   1.083       .  S
C1123      C1124   1.405       .  A
C1123      H1132   1.083       .  S
C1124      C1130   1.409       .  A
C1124      C1125   1.414       .  A
C1125      C1127   1.403       .  A
C1125      C1126   1.407       .  A
C1126      H1133   1.084       .  S
C1127      C1128   1.399       .  A
C1127      H1134   1.084       .  S
C1128      C1129   1.406       .  A
C1128      H1135   1.083       .  S
C1129      C1130   1.410       .  A
C1130      H1136   1.084       .  S
C1137      C1138   1.404       .  A
C1137      C1142   1.405       .  A
C1138      C1139   1.398       .  A
C1138      H1147   1.083       .  S
C1139      C1140   1.402       .  A
C1139      H1148   1.084       .  S
C1140      C1146   1.406       .  A
C1140      C1141   1.415       .  A
C1141      C1143   1.402       .  A
C1141      C1142   1.406       .  A
C1142      H1149   1.084       .  S
C1143      C1144   1.398       .  A
C1143      H1150   1.084       .  S
C1144      C1145   1.406       .  A
C1144      H1151   1.083       .  S
C1145      C1146   1.406       .  A
C1146      H1152   1.084       .  S
C1153      C1154   1.408       .  A
C1153      C1158   1.410       .  A
C1154      C1155   1.401       .  A
C1154      H1163   1.081       .  S
C1155      C1156   1.402       .  A
C1155      H1164   1.084       .  S
C1156      C1162   1.411       .  A
C1156      C1157   1.413       .  A
C1157      C1159   1.401       .  A
C1157      C1158   1.409       .  A
C1158      H1165   1.083       .  S
C1159      C1160   1.398       .  A
C1159      H1166   1.084       .  S
C1160      C1161   1.410       .  A
C1160      H1167   1.083       .  S
C1161      C1162   1.410       .  A
C1162      H1168   1.084       .  S
C1169      C1170   1.408       .  A
C1169      C1174   1.411       .  A
C1170      C1171   1.396       .  A
C1170      H1179   1.081       .  S
C1171      C1172   1.400       .  A
C1171      H1180   1.084       .  S
C1172      C1178   1.404       .  A
C1172      C1173   1.412       .  A
C1173      C1175   1.405       .  A
C1173      C1174   1.410       .  A
C1174      H1181   1.083       .  S
C1175      C1176   1.403       .  A
C1175      H1182   1.083       .  S
C1176      C1177   1.407       .  A
C1176      H1183   1.083       .  S
C1177      C1178   1.409       .  A
C1178      H1184   1.084       .  S
C1185      C1186   1.407       .  A
C1185      C1190   1.404       .  A
C1186      C1187   1.400       .  A
C1186      H1195   1.082       .  S
C1187      C1188   1.402       .  A
C1187      H1196   1.084       .  S
C1188      C1194   1.408       .  A
C1188      C1189   1.415       .  A
C1189      C1191   1.399       .  A
C1189      C1190   1.401       .  A
C1190      H1197   1.083       .  S
C1191      C1192   1.393       .  A
C1191      H1198   1.084       .  S
C1192      C1193   1.405       .  A
C1192      H1199   1.083       .  S
C1193      C1194   1.405       .  A
C1194      H1200   1.084       .  S
C1201      C1202   1.405       .  A
C1201      C1206   1.406       .  A
C1202      C1203   1.398   1_556  A
C1202      H1211   1.083   1_556  S
C1203      C1204   1.403       .  A
C1203      H1212   1.084       .  S
C1204      C1210   1.405       .  A
C1204      C1205   1.414   1_554  A
C1205      C1207   1.404       .  A
C1205      C1206   1.406       .  A
C1206      H1213   1.084       .  S
C1207      C1208   1.400   1_556  A
C1207      H1214   1.083       .  S
C1208      C1209   1.404       .  A
C1208      H1215   1.083       .  S
C1209      C1210   1.407       .  A
C1210      H1216   1.084       .  S
C1217      C1218   1.409       .  A
C1217      C1222   1.408       .  A
C1218      C1219   1.392       .  A
C1218      H1227   1.083       .  S
C1219      C1220   1.398       .  A
C1219      H1228   1.084       .  S
C1220      C1226   1.400       .  A
C1220      C1221   1.413       .  A
C1221      C1223   1.403       .  A
C1221      C1222   1.407       .  A
C1222      H1229   1.084       .  S
C1223      C1224   1.400       .  A
C1223      H1230   1.083       .  S
C1224      C1225   1.407       .  A
C1224      H1231   1.082       .  S
C1225      C1226   1.405       .  A
C1226      H1232   1.083       .  S
C1233      C1234   1.410       .  A
C1233      C1238   1.407       .  A
C1234      C1235   1.393       .  A
C1234      H1243   1.083       .  S
C1235      C1236   1.398       .  A
C1235      H1244   1.084       .  S
C1236      C1242   1.404       .  A
C1236      C1237   1.414       .  A
C1237      C1239   1.401       .  A
C1237      C1238   1.409       .  A
C1238      H1245   1.084       .  S
C1239      C1240   1.400       .  A
C1239      H1246   1.084       .  S
C1240      C1241   1.410       .  A
C1240      H1247   1.081       .  S
C1241      C1242   1.406       .  A
C1242      H1248   1.082       .  S
C1249      C1250   1.405       .  A
C1249      C1254   1.406       .  A
C1250      C1251   1.399   1_554  A
C1250      H1259   1.083       .  S
C1251      C1252   1.403       .  A
C1251      H1260   1.084       .  S
C1252      C1258   1.406       .  A
C1252      C1253   1.414   1_556  A
C1253      C1255   1.403       .  A
C1253      C1254   1.405       .  A
C1254      H1261   1.084       .  S
C1255      C1256   1.398   1_554  A
C1255      H1262   1.084       .  S
C1256      C1257   1.405       .  A
C1256      H1263   1.083       .  S
C1257      C1258   1.407       .  A
C1258      H1264   1.084       .  S
C1265      C1266   1.409       .  A
C1265      C1270   1.409       .  A
C1266      C1267   1.395       .  A
C1266      H1275   1.083       .  S
C1267      C1268   1.399       .  A
C1267      H1276   1.084       .  S
C1268      C1274   1.404       .  A
C1268      C1269   1.414       .  A
C1269      C1271   1.403       .  A
C1269      C1270   1.410       .  A
C1270      H1277   1.084       .  S
C1271      C1272   1.401       .  A
C1271      H1278   1.083       .  S
C1272      C1273   1.407       .  A
C1272      H1279   1.082       .  S
C1273      C1274   1.406       .  A
C1274      H1280   1.083       .  S
C1281      C1282   1.405       .  A
C1281      C1286   1.406       .  A
C1282      C1283   1.397       .  A
C1282      H1291   1.083       .  S
C1283      C1284   1.402       .  A
C1283      H1292   1.084       .  S
C1284      C1290   1.404       .  A
C1284      C1285   1.413       .  A
C1285      C1287   1.402       .  A
C1285      C1286   1.404       .  A
C1286      H1293   1.084       .  S
C1287      C1288   1.398       .  A
C1287      H1294   1.084       .  S
C1288      C1289   1.406       .  A
C1288      H1295   1.083       .  S
C1289      C1290   1.406       .  A
C1290      H1296   1.084       .  S
C1297      C1298   1.409       .  A
C1297      C1302   1.407       .  A
C1298      C1299   1.394       .  A
C1298      H1307   1.083       .  S
C1299      C1300   1.399       .  A
C1299      H1308   1.084       .  S
C1300      C1306   1.403       .  A
C1300      C1301   1.414       .  A
C1301      C1303   1.401       .  A
C1301      C1302   1.407       .  A
C1302      H1309   1.084       .  S
C1303      C1304   1.398       .  A
C1303      H1310   1.084       .  S
C1304      C1305   1.408       .  A
C1304      H1311   1.081       .  S
C1305      C1306   1.405       .  A
C1306      H1312   1.083       .  S
C1313      C1314   1.405       .  A
C1313      C1318   1.407       .  A
C1314      C1315   1.403       .  A
C1314      H1323   1.083       .  S
C1315      C1316   1.406       .  A
C1315      H1324   1.083       .  S
C1316      C1322   1.408       .  A
C1316      C1317   1.413       .  A
C1317      C1319   1.401       .  A
C1317      C1318   1.400       .  A
C1318      H1325   1.084       .  S
C1319      C1320   1.395       .  A
C1319      H1326   1.084       .  S
C1320      C1321   1.403       .  A
C1320      H1327   1.083       .  S
C1321      C1322   1.409       .  A
C1322      H1328   1.084       .  S
C1329      C1330   1.406       .  A
C1329      C1334   1.408       .  A
C1330      C1331   1.398       .  A
C1330      H1339   1.082       .  S
C1331      C1332   1.402       .  A
C1331      H1340   1.084       .  S
C1332      C1338   1.406       .  A
C1332      C1333   1.413       .  A
C1333      C1335   1.404       .  A
C1333      C1334   1.408       .  A
C1334      H1341   1.084       .  S
C1335      C1336   1.401       .  A
C1335      H1342   1.083       .  S
C1336      C1337   1.404       .  A
C1336      H1343   1.083       .  S
C1337      C1338   1.407       .  A
C1338      H1344   1.084       .  S
C1345      C1346   1.404       .  A
C1345      C1350   1.400       .  A
C1346      C1347   1.400       .  A
C1346      H1355   1.083       .  S
C1347      C1348   1.403       .  A
C1347      H1356   1.083       .  S
C1348      C1354   1.408       .  A
C1348      C1349   1.416       .  A
C1349      C1351   1.399   1_565  A
C1349      C1350   1.403       .  A
C1350      H1357   1.085       .  S
C1351      C1352   1.394       .  A
C1351      H1358   1.084       .  S
C1352      C1353   1.408       .  A
C1352      H1359   1.083       .  S
C1353      C1354   1.407   1_545  A
C1354      H1360   1.084       .  S
C1361      C1362   1.404       .  A
C1361      C1366   1.404       .  A
C1362      C1363   1.399       .  A
C1362      H1371   1.083       .  S
C1363      C1364   1.404       .  A
C1363      H1372   1.083       .  S
C1364      C1370   1.405       .  A
C1364      C1365   1.414       .  A
C1365      C1367   1.400       .  A
C1365      C1366   1.401       .  A
C1366      H1373   1.085       .  S
C1367      C1368   1.395       .  A
C1367      H1374   1.084       .  S
C1368      C1369   1.406       .  A
C1368      H1375   1.082       .  S
C1369      C1370   1.406       .  A
C1370      H1376   1.084       .  S
C1377      C1378   1.409       .  A
C1377      C1382   1.405       .  A
C1378      C1379   1.398       .  A
C1378      H1387   1.083       .  S
C1379      C1380   1.401       .  A
C1379      H1388   1.084       .  S
C1380      C1386   1.405       .  A
C1380      C1381   1.414       .  A
C1381      C1383   1.399       .  A
C1381      C1382   1.402       .  A
C1382      H1389   1.084       .  S
C1383      C1384   1.394       .  A
C1383      H1390   1.084       .  S
C1384      C1385   1.407       .  A
C1384      H1391   1.081       .  S
C1385      C1386   1.407       .  A
C1386      H1392   1.083       .  S
C1393      C1394   1.408       .  A
C1393      C1398   1.409       .  A
C1394      C1395   1.392       .  A
C1394      H1403   1.083       .  S
C1395      C1396   1.398       .  A
C1395      H1404   1.084       .  S
C1396      C1402   1.401       .  A
C1396      C1397   1.414       .  A
C1397      C1399   1.403       .  A
C1397      C1398   1.409       .  A
C1398      H1405   1.084       .  S
C1399      C1400   1.401       .  A
C1399      H1406   1.083       .  S
C1400      C1401   1.407       .  A
C1400      H1407   1.082       .  S
C1401      C1402   1.404       .  A
C1402      H1408   1.083       .  S
C1409      C1410   1.405       .  A
C1409      C1414   1.406       .  A
C1410      C1411   1.401       .  A
C1410      H1419   1.083       .  S
C1411      C1412   1.404       .  A
C1411      H1420   1.083       .  S
C1412      C1418   1.408       .  A
C1412      C1413   1.414       .  A
C1413      C1415   1.402       .  A
C1413      C1414   1.405       .  A
C1414      H1421   1.084       .  S
C1415      C1416   1.397       .  A
C1415      H1422   1.084       .  S
C1416      C1417   1.404       .  A
C1416      H1423   1.083       .  S
C1417      C1418   1.406       .  A
C1418      H1424   1.084       .  S
C1425      C1426   1.405       .  A
C1425      C1430   1.406       .  A
C1426      C1427   1.400       .  A
C1426      H1435   1.083       .  S
C1427      C1428   1.403       .  A
C1427      H1436   1.084       .  S
C1428      C1434   1.407       .  A
C1428      C1429   1.414       .  A
C1429      C1431   1.402       .  A
C1429      C1430   1.405       .  A
C1430      H1437   1.084       .  S
C1431      C1432   1.398       .  A
C1431      H1438   1.084       .  S
C1432      C1433   1.405       .  A
C1432      H1439   1.083       .  S
C1433      C1434   1.406       .  A
C1434      H1440   1.084       .  S
C1441      C1442   1.407       .  A
C1441      C1446   1.410       .  A
C1442      C1443   1.399       .  A
C1442      H1451   1.081       .  S
C1443      C1444   1.402       .  A
C1443      H1452   1.084       .  S
C1444      C1450   1.405       .  A
C1444      C1445   1.411       .  A
C1445      C1447   1.403       .  A
C1445      C1446   1.405       .  A
C1446      H1453   1.082       .  S
C1447      C1448   1.399       .  A
C1447      H1454   1.084       .  S
C1448      C1449   1.406       .  A
C1448      H1455   1.083       .  S
C1449      C1450   1.411       .  A
C1450      H1456   1.084       .  S
C1457      C1458   1.407       .  A
C1457      C1462   1.407       .  A
C1458      C1459   1.391       .  A
C1458      H1467   1.083       .  S
C1459      C1460   1.398       .  A
C1459      H1468   1.084       .  S
C1460      C1466   1.399       .  A
C1460      C1461   1.413       .  A
C1461      C1463   1.402       .  A
C1461      C1462   1.406       .  A
C1462      H1469   1.084       .  S
C1463      C1464   1.399       .  A
C1463      H1470   1.084       .  S
C1464      C1465   1.408       .  A
C1464      H1471   1.082       .  S
C1465      C1466   1.404       .  A
C1466      H1472   1.082       .  S
C1473      C1474   1.403       .  A
C1473      C1478   1.405       .  A
C1474      C1475   1.398       .  A
C1474      H1483   1.083       .  S
C1475      C1476   1.403       .  A
C1475      H1484   1.084       .  S
C1476      C1482   1.404       .  A
C1476      C1477   1.414       .  A
C1477      C1479   1.403       .  A
C1477      C1478   1.406       .  A
C1478      H1485   1.084       .  S
C1479      C1480   1.399       .  A
C1479      H1486   1.084       .  S
C1480      C1481   1.405       .  A
C1480      H1487   1.083       .  S
C1481      C1482   1.409       .  A
C1482      H1488   1.084       .  S
C1489      C1490   1.407       .  A
C1489      C1494   1.405       .  A
C1490      C1491   1.395       .  A
C1490      H1499   1.083       .  S
C1491      C1492   1.400       .  A
C1491      H1500   1.084       .  S
C1492      C1498   1.403       .  A
C1492      C1493   1.415       .  A
C1493      C1495   1.402       .  A
C1493      C1494   1.406       .  A
C1494      H1501   1.084       .  S
C1495      C1496   1.398       .  A
C1495      H1502   1.084       .  S
C1496      C1497   1.405       .  A
C1496      H1503   1.083       .  S
C1497      C1498   1.404       .  A
C1498      H1504   1.084       .  S
C1505      C1506   1.404   1_556  A
C1505      C1510   1.405       .  A
C1506      C1507   1.399       .  A
C1506      H1515   1.083       .  S
C1507      C1508   1.403       .  A
C1507      H1516   1.083       .  S
C1508      C1514   1.407       .  A
C1508      C1509   1.415   1_554  A
C1509      C1511   1.402       .  A
C1509      C1510   1.405       .  A
C1510      H1517   1.084       .  S
C1511      C1512   1.397   1_556  A
C1511      H1518   1.084       .  S
C1512      C1513   1.405       .  A
C1512      H1519   1.083       .  S
C1513      C1514   1.406       .  A
C1514      H1520   1.084       .  S
C1521      C1522   1.406       .  A
C1521      C1526   1.404       .  A
C1522      C1523   1.400       .  A
C1522      H1531   1.082       .  S
C1523      C1524   1.403       .  A
C1523      H1532   1.083       .  S
C1524      C1530   1.407       .  A
C1524      C1525   1.414       .  A
C1525      C1527   1.398       .  A
C1525      C1526   1.401       .  A
C1526      H1533   1.083       .  S
C1527      C1528   1.393       .  A
C1527      H1534   1.084       .  S
C1528      C1529   1.408       .  A
C1528      H1535   1.083       .  S
C1529      C1530   1.408       .  A
C1530      H1536   1.084       .  S
C1537      C1538   1.404       .  A
C1537      C1542   1.406       .  A
C1538      C1539   1.403       .  A
C1538      H1547   1.083       .  S
C1539      C1540   1.406       .  A
C1539      H1548   1.083       .  S
C1540      C1546   1.409       .  A
C1540      C1541   1.413       .  A
C1541      C1543   1.400       .  A
C1541      C1542   1.400       .  A
C1542      H1549   1.085       .  S
C1543      C1544   1.394       .  A
C1543      H1550   1.084       .  S
C1544      C1545   1.405       .  A
C1544      H1551   1.083       .  S
C1545      C1546   1.408       .  A
C1546      H1552   1.084       .  S
C1553      C1554   1.407       .  A
C1553      C1558   1.406       .  A
C1554      C1555   1.400       .  A
C1554      H1563   1.083       .  S
C1555      C1556   1.403       .  A
C1555      H1564   1.084       .  S
C1556      C1562   1.406       .  A
C1556      C1557   1.413       .  A
C1557      C1559   1.399       .  A
C1557      C1558   1.401       .  A
C1558      H1565   1.084       .  S
C1559      C1560   1.394       .  A
C1559      H1566   1.084       .  S
C1560      C1561   1.407       .  A
C1560      H1567   1.081       .  S
C1561      C1562   1.408       .  A
C1562      H1568   1.083       .  S
C1569      C1570   1.405       .  A
C1569      C1574   1.409       .  A
C1570      C1571   1.395       .  A
C1570      H1579   1.082       .  S
C1571      C1572   1.400       .  A
C1571      H1580   1.084       .  S
C1572      C1578   1.402       .  A
C1572      C1573   1.413       .  A
C1573      C1575   1.405       .  A
C1573      C1574   1.407       .  A
C1574      H1581   1.084       .  S
C1575      C1576   1.401       .  A
C1575      H1582   1.083       .  S
C1576      C1577   1.404       .  A
C1576      H1583   1.083       .  S
C1577      C1578   1.405       .  A
C1578      H1584   1.085       .  S
C1585      C1586   1.407       .  A
C1585      C1590   1.408       .  A
C1586      C1587   1.400       .  A
C1586      H1595   1.083       .  S
C1587      C1588   1.403       .  A
C1587      H1596   1.084       .  S
C1588      C1594   1.406       .  A
C1588      C1589   1.413       .  A
C1589      C1591   1.400       .  A
C1589      C1590   1.402       .  A
C1590      H1597   1.084       .  S
C1591      C1592   1.395       .  A
C1591      H1598   1.084       .  S
C1592      C1593   1.406       .  A
C1592      H1599   1.082       .  S
C1593      C1594   1.408       .  A
C1594      H1600   1.083       .  S
C1601      C1602   1.408       .  A
C1601      C1606   1.412       .  A
C1602      C1603   1.393       .  A
C1602      H1611   1.083       .  S
C1603      C1604   1.399       .  A
C1603      H1612   1.084       .  S
C1604      C1610   1.403       .  A
C1604      C1605   1.412       .  A
C1605      C1607   1.404       .  A
C1605      C1606   1.412       .  A
C1606      H1613   1.084       .  S
C1607      C1608   1.404       .  A
C1607      H1614   1.083       .  S
C1608      C1609   1.409       .  A
C1608      H1615   1.081       .  S
C1609      C1610   1.407       .  A
C1610      H1616   1.081       .  S
C1617      C1618   1.404       .  A
C1617      C1622   1.407       .  A
C1618      C1619   1.399   1_556  A
C1618      H1627   1.083   1_556  S
C1619      C1620   1.403       .  A
C1619      H1628   1.084       .  S
C1620      C1626   1.405       .  A
C1620      C1621   1.414   1_554  A
C1621      C1623   1.404       .  A
C1621      C1622   1.406       .  A
C1622      H1629   1.084       .  S
C1623      C1624   1.399   1_556  A
C1623      H1630   1.084       .  S
C1624      C1625   1.404       .  A
C1624      H1631   1.083   1_554  S
C1625      C1626   1.406       .  A
C1626      H1632   1.084       .  S
C1633      C1634   1.405       .  A
C1633      C1638   1.405       .  A
C1634      C1635   1.395       .  A
C1634      H1643   1.083       .  S
C1635      C1636   1.400       .  A
C1635      H1644   1.084       .  S
C1636      C1642   1.402       .  A
C1636      C1637   1.415       .  A
C1637      C1639   1.403       .  A
C1637      C1638   1.405       .  A
C1638      H1645   1.084       .  S
C1639      C1640   1.398       .  A
C1639      H1646   1.084       .  S
C1640      C1641   1.404       .  A
C1640      H1647   1.083       .  S
C1641      C1642   1.403       .  A
C1642      H1648   1.085       .  S
C1649      C1650   1.406       .  A
C1649      C1654   1.406       .  A
C1650      C1651   1.401       .  A
C1650      H1659   1.083       .  S
C1651      C1652   1.404       .  A
C1651      H1660   1.084       .  S
C1652      C1658   1.407       .  A
C1652      C1653   1.413       .  A
C1653      C1655   1.401       .  A
C1653      C1654   1.403       .  A
C1654      H1661   1.084       .  S
C1655      C1656   1.396       .  A
C1655      H1662   1.084       .  S
C1656      C1657   1.404       .  A
C1656      H1663   1.083       .  S
C1657      C1658   1.408       .  A
C1658      H1664   1.084       .  S
C1665      C1666   1.408       .  A
C1665      C1670   1.410       .  A
C1666      C1667   1.393       .  A
C1666      H1675   1.083       .  S
C1667      C1668   1.398       .  A
C1667      H1676   1.084       .  S
C1668      C1674   1.401       .  A
C1668      C1669   1.413       .  A
C1669      C1671   1.403       .  A
C1669      C1670   1.409       .  A
C1670      H1677   1.084       .  S
C1671      C1672   1.401       .  A
C1671      H1678   1.084       .  S
C1672      C1673   1.408       .  A
C1672      H1679   1.082       .  S
C1673      C1674   1.405       .  A
C1674      H1680   1.083       .  S
C1681      C1682   1.405       .  A
C1681      C1686   1.404       .  A
C1682      C1683   1.397       .  A
C1682      H1691   1.083       .  S
C1683      C1684   1.402       .  A
C1683      H1692   1.084       .  S
C1684      C1690   1.403       .  A
C1684      C1685   1.414       .  A
C1685      C1687   1.402       .  A
C1685      C1686   1.403       .  A
C1686      H1693   1.084       .  S
C1687      C1688   1.397       .  A
C1687      H1694   1.084       .  S
C1688      C1689   1.405       .  A
C1688      H1695   1.083       .  S
C1689      C1690   1.406       .  A
C1690      H1696   1.084       .  S
C1697      C1698   1.408       .  A
C1697      C1702   1.411       .  A
C1698      C1699   1.390       .  A
C1698      H1707   1.080       .  S
C1699      C1700   1.396       .  A
C1699      H1708   1.084       .  S
C1700      C1706   1.399       .  A
C1700      C1701   1.413       .  A
C1701      C1703   1.405       .  A
C1701      C1702   1.410       .  A
C1702      H1709   1.083       .  S
C1703      C1704   1.403       .  A
C1703      H1710   1.083       .  S
C1704      C1705   1.408       .  A
C1704      H1711   1.083       .  S
C1705      C1706   1.404       .  A
C1706      H1712   1.084       .  S
C1713      C1714   1.404       .  A
C1713      C1718   1.404       .  A
C1714      C1715   1.398       .  A
C1714      H1723   1.083       .  S
C1715      C1716   1.403       .  A
C1715      H1724   1.084       .  S
C1716      C1722   1.404       .  A
C1716      C1717   1.414       .  A
C1717      C1719   1.402       .  A
C1717      C1718   1.403       .  A
C1718      H1725   1.084       .  S
C1719      C1720   1.397       .  A
C1719      H1726   1.084       .  S
C1720      C1721   1.405       .  A
C1720      H1727   1.083       .  S
C1721      C1722   1.408       .  A
C1722      H1728   1.084       .  S
C1729      C1730   1.406       .  A
C1729      C1734   1.401       .  A
C1730      C1731   1.403       .  A
C1730      H1739   1.083       .  S
C1731      C1732   1.405       .  A
C1731      H1740   1.083       .  S
C1732      C1738   1.410       .  A
C1732      C1733   1.414       .  A
C1733      C1735   1.396       .  A
C1733      C1734   1.398       .  A
C1734      H1741   1.084       .  S
C1735      C1736   1.390       .  A
C1735      H1742   1.084       .  S
C1736      C1737   1.408       .  A
C1736      H1743   1.083       .  S
C1737      C1738   1.410       .  A
C1738      H1744   1.084       .  S
C1745      C1746   1.406       .  A
C1745      C1750   1.407       .  A
C1746      C1747   1.393       .  A
C1746      H1755   1.083       .  S
C1747      C1748   1.399       .  A
C1747      H1756   1.084       .  S
C1748      C1754   1.401       .  A
C1748      C1749   1.415       .  A
C1749      C1751   1.403       .  A
C1749      C1750   1.407       .  A
C1750      H1757   1.084       .  S
C1751      C1752   1.400       .  A
C1751      H1758   1.084       .  S
C1752      C1753   1.405       .  A
C1752      H1759   1.083       .  S
C1753      C1754   1.402       .  A
C1754      H1760   1.084       .  S
C1761      C1762   1.408       .  A
C1761      C1766   1.406       .  A
C1762      C1763   1.401       .  A
C1762      H1771   1.083       .  S
C1763      C1764   1.403       .  A
C1763      H1772   1.084       .  S
C1764      C1770   1.408       .  A
C1764      C1765   1.414       .  A
C1765      C1767   1.400       .  A
C1765      C1766   1.403       .  A
C1766      H1773   1.084       .  S
C1767      C1768   1.394       .  A
C1767      H1774   1.084       .  S
C1768      C1769   1.406       .  A
C1768      H1775   1.082       .  S
C1769      C1770   1.408       .  A
C1770      H1776   1.084       .  S
C1777      C1778   1.406       .  A
C1777      C1782   1.405       .  A
C1778      C1779   1.395       .  A
C1778      H1787   1.083       .  S
C1779      C1780   1.400       .  A
C1779      H1788   1.084       .  S
C1780      C1786   1.404       .  A
C1780      C1781   1.416       .  A
C1781      C1783   1.402       .  A
C1781      C1782   1.406       .  A
C1782      H1789   1.084       .  S
C1783      C1784   1.398       .  A
C1783      H1790   1.084       .  S
C1784      C1785   1.404       .  A
C1784      H1791   1.083       .  S
C1785      C1786   1.402       .  A
C1786      H1792   1.085       .  S
C1793      C1794   1.404       .  A
C1793      C1798   1.407       .  A
C1794      C1795   1.394       .  A
C1794      H1803   1.083       .  S
C1795      C1796   1.400       .  A
C1795      H1804   1.084       .  S
C1796      C1802   1.401       .  A
C1796      C1797   1.414       .  A
C1797      C1799   1.404   1_655  A
C1797      C1798   1.408       .  A
C1798      H1805   1.084       .  S
C1799      C1800   1.402       .  A
C1799      H1806   1.083       .  S
C1800      C1801   1.405       .  A
C1800      H1807   1.083       .  S
C1801      C1802   1.404   1_455  A
C1802      H1808   1.084       .  S
C1809      C1810   1.405       .  A
C1809      C1814   1.406       .  A
C1810      C1811   1.400       .  A
C1810      H1819   1.083       .  S
C1811      C1812   1.404   1_655  A
C1811      H1820   1.083       .  S
C1812      C1818   1.405       .  A
C1812      C1813   1.413       .  A
C1813      C1815   1.400       .  A
C1813      C1814   1.399   1_455  A
C1814      H1821   1.084       .  S
C1815      C1816   1.393       .  A
C1815      H1822   1.084       .  S
C1816      C1817   1.405       .  A
C1816      H1823   1.082       .  S
C1817      C1818   1.406       .  A
C1818      H1824   1.084       .  S
C1825      C1826   1.405       .  A
C1825      C1830   1.408       .  A
C1826      C1827   1.394       .  A
C1826      H1835   1.083       .  S
C1827      C1828   1.400       .  A
C1827      H1836   1.084       .  S
C1828      C1834   1.401   1_545  A
C1828      C1829   1.414       .  A
C1829      C1831   1.405   1_545  A
C1829      C1830   1.408       .  A
C1830      H1837   1.084       .  S
C1831      C1832   1.403       .  A
C1831      H1838   1.083       .  S
C1832      C1833   1.404       .  A
C1832      H1839   1.083       .  S
C1833      C1834   1.404       .  A
C1834      H1840   1.085   1_565  S
C1841      C1842   1.404       .  A
C1841      C1846   1.407       .  A
C1842      C1843   1.402       .  A
C1842      H1851   1.083       .  S
C1843      C1844   1.405       .  A
C1843      H1852   1.083       .  S
C1844      C1850   1.407       .  A
C1844      C1845   1.413       .  A
C1845      C1847   1.401       .  A
C1845      C1846   1.402       .  A
C1846      H1853   1.085       .  S
C1847      C1848   1.397       .  A
C1847      H1854   1.084       .  S
C1848      C1849   1.406       .  A
C1848      H1855   1.082       .  S
C1849      C1850   1.410       .  A
C1850      H1856   1.083       .  S
C1857      C1858   1.406       .  A
C1857      C1862   1.407       .  A
C1858      C1859   1.397       .  A
C1858      H1867   1.083       .  S
C1859      C1860   1.402       .  A
C1859      H1868   1.084       .  S
C1860      C1866   1.404       .  A
C1860      C1861   1.414       .  A
C1861      C1863   1.404       .  A
C1861      C1862   1.407       .  A
C1862      H1869   1.084       .  S
C1863      C1864   1.401       .  A
C1863      H1870   1.083       .  S
C1864      C1865   1.405       .  A
C1864      H1871   1.083       .  S
C1865      C1866   1.407       .  A
C1866      H1872   1.084       .  S
C1873      C1874   1.406       .  A
C1873      C1878   1.404       .  A
C1874      C1875   1.396       .  A
C1874      H1883   1.082       .  S
C1875      C1876   1.401       .  A
C1875      H1884   1.084       .  S
C1876      C1882   1.402       .  A
C1876      C1877   1.414       .  A
C1877      C1879   1.400       .  A
C1877      C1878   1.401       .  A
C1878      H1885   1.084       .  S
C1879      C1880   1.395       .  A
C1879      H1886   1.084       .  S
C1880      C1881   1.407       .  A
C1880      H1887   1.083       .  S
C1881      C1882   1.406       .  A
C1882      H1888   1.084       .  S
C1889      C1890   1.404       .  A
C1889      C1894   1.403       .  A
C1890      C1891   1.401       .  A
C1890      H1899   1.083       .  S
C1891      C1892   1.405       .  A
C1891      H1900   1.083       .  S
C1892      C1898   1.406       .  A
C1892      C1893   1.414       .  A
C1893      C1895   1.400       .  A
C1893      C1894   1.400       .  A
C1894      H1901   1.085       .  S
C1895      C1896   1.394       .  A
C1895      H1902   1.084       .  S
C1896      C1897   1.405       .  A
C1896      H1903   1.082       .  S
C1897      C1898   1.408       .  A
C1898      H1904   1.084       .  S
C1905      C1906   1.404       .  A
C1905      C1910   1.403       .  A
C1906      C1907   1.402       .  A
C1906      H1915   1.083       .  S
C1907      C1908   1.406       .  A
C1907      H1916   1.083       .  S
C1908      C1914   1.405       .  A
C1908      C1909   1.413       .  A
C1909      C1911   1.400       .  A
C1909      C1910   1.396       .  A
C1910      H1917   1.085       .  S
C1911      C1912   1.392       .  A
C1911      H1918   1.084       .  S
C1912      C1913   1.403       .  A
C1912      H1919   1.083       .  S
C1913      C1914   1.407       .  A
C1914      H1920   1.084       .  S
C1921      C1922   1.408       .  A
C1921      C1926   1.406       .  A
C1922      C1923   1.392       .  A
C1922      H1931   1.083       .  S
C1923      C1924   1.398       .  A
C1923      H1932   1.084       .  S
C1924      C1930   1.401       .  A
C1924      C1925   1.414       .  A
C1925      C1927   1.402       .  A
C1925      C1926   1.407       .  A
C1926      H1933   1.084       .  S
C1927      C1928   1.399       .  A
C1927      H1934   1.084       .  S
C1928      C1929   1.408       .  A
C1928      H1935   1.082       .  S
C1929      C1930   1.404       .  A
C1930      H1936   1.083       .  S
C1937      C1938   1.405       .  A
C1937      C1942   1.405       .  A
C1938      C1939   1.400       .  A
C1938      H1947   1.083       .  S
C1939      C1940   1.404       .  A
C1939      H1948   1.083       .  S
C1940      C1946   1.406       .  A
C1940      C1941   1.414       .  A
C1941      C1943   1.401       .  A
C1941      C1942   1.401       .  A
C1942      H1949   1.084       .  S
C1943      C1944   1.395       .  A
C1943      H1950   1.084       .  S
C1944      C1945   1.404       .  A
C1944      H1951   1.083       .  S
C1945      C1946   1.406       .  A
C1946      H1952   1.084       .  S
C1953      C1954   1.403       .  A
C1953      C1958   1.406       .  A
C1954      C1955   1.395       .  A
C1954      H1963   1.083       .  S
C1955      C1956   1.401       .  A
C1955      H1964   1.084       .  S
C1956      C1962   1.399       .  A
C1956      C1957   1.413       .  A
C1957      C1959   1.404       .  A
C1957      C1958   1.403       .  A
C1958      H1965   1.084       .  S
C1959      C1960   1.400       .  A
C1959      H1966   1.083       .  S
C1960      C1961   1.403       .  A
C1960      H1967   1.083       .  S
C1961      C1962   1.405       .  A
C1962      H1968   1.085       .  S
C1969      C1970   1.407       .  A
C1969      C1974   1.407       .  A
C1970      C1971   1.398       .  A
C1970      H1979   1.082       .  S
C1971      C1972   1.402       .  A
C1971      H1980   1.084       .  S
C1972      C1978   1.404       .  A
C1972      C1973   1.413       .  A
C1973      C1975   1.401       .  A
C1973      C1974   1.403       .  A
C1974      H1981   1.083       .  S
C1975      C1976   1.396       .  A
C1975      H1982   1.084       .  S
C1976      C1977   1.407       .  A
C1976      H1983   1.083       .  S
C1977      C1978   1.408       .  A
C1978      H1984   1.084       .  S
C1985      C1986   1.406       .  A
C1985      C1990   1.404       .  A
C1986      C1987   1.397       .  A
C1986      H1995   1.083       .  S
C1987      C1988   1.401       .  A
C1987      H1996   1.084       .  S
C1988      C1994   1.403       .  A
C1988      C1989   1.415       .  A
C1989      C1991   1.402       .  A
C1989      C1990   1.403       .  A
C1990      H1997   1.084       .  S
C1991      C1992   1.396       .  A
C1991      H1998   1.084       .  S
C1992      C1993   1.405       .  A
C1992      H1999   1.083       .  S
C1993      C1994   1.405       .  A
C1994      H2000   1.084       .  S
C2001      C2002   1.408       .  A
C2001      C2006   1.405       .  A
C2002      C2003   1.402       .  A
C2002      H2011   1.082       .  S
C2003      C2004   1.403       .  A
C2003      H2012   1.083       .  S
C2004      C2010   1.411       .  A
C2004      C2005   1.414       .  A
C2005      C2007   1.398       .  A
C2005      C2006   1.402       .  A
C2006      H2013   1.083       .  S
C2007      C2008   1.392       .  A
C2007      H2014   1.084       .  S
C2008      C2009   1.407       .  A
C2008      H2015   1.083       .  S
C2009      C2010   1.408       .  A
C2010      H2016   1.084       .  S
C2017      C2018   1.403       .  A
C2017      C2022   1.406       .  A
C2018      C2019   1.395       .  A
C2018      H2027   1.083       .  S
C2019      C2020   1.401       .  A
C2019      H2028   1.084       .  S
C2020      C2026   1.403       .  A
C2020      C2021   1.415       .  A
C2021      C2023   1.404       .  A
C2021      C2022   1.409       .  A
C2022      H2029   1.084       .  S
C2023      C2024   1.402       .  A
C2023      H2030   1.083       .  S
C2024      C2025   1.406       .  A
C2024      H2031   1.083       .  S
C2025      C2026   1.406       .  A
C2026      H2032   1.084       .  S
C2033      C2034   1.406       .  A
C2033      C2038   1.409       .  A
C2034      C2035   1.397       .  A
C2034      H2043   1.082       .  S
C2035      C2036   1.402       .  A
C2035      H2044   1.084       .  S
C2036      C2042   1.404       .  A
C2036      C2037   1.413       .  A
C2037      C2039   1.405       .  A
C2037      C2038   1.407       .  A
C2038      H2045   1.083       .  S
C2039      C2040   1.401       .  A
C2039      H2046   1.083       .  S
C2040      C2041   1.403       .  A
C2040      H2047   1.083       .  S
C2041      C2042   1.405       .  A
C2042      H2048   1.085       .  S
C2049      C2050   1.404       .  A
C2049      C2054   1.408       .  A
C2050      C2051   1.402       .  A
C2050      H2059   1.083       .  S
C2051      C2052   1.405       .  A
C2051      H2060   1.083       .  S
C2052      C2058   1.409   1_565  A
C2052      C2053   1.413       .  A
C2053      C2055   1.404   1_565  A
C2053      C2054   1.407       .  A
C2054      H2061   1.084       .  S
C2055      C2056   1.400       .  A
C2055      H2062   1.084       .  S
C2056      C2057   1.404       .  A
C2056      H2063   1.083       .  S
C2057      C2058   1.408       .  A
C2058      H2064   1.084   1_545  S
C2065      C2066   1.405       .  A
C2065      C2070   1.405       .  A
C2066      C2067   1.398       .  A
C2066      H2075   1.083       .  S
C2067      C2068   1.402       .  A
C2067      H2076   1.084       .  S
C2068      C2074   1.404       .  A
C2068      C2069   1.414       .  A
C2069      C2071   1.401       .  A
C2069      C2070   1.403       .  A
C2070      H2077   1.084       .  S
C2071      C2072   1.396       .  A
C2071      H2078   1.084       .  S
C2072      C2073   1.404       .  A
C2072      H2079   1.083       .  S
C2073      C2074   1.406       .  A
C2074      H2080   1.084       .  S
C2081      C2082   1.408       .  A
C2081      C2086   1.408       .  A
C2082      C2083   1.402       .  A
C2082      H2091   1.082       .  S
C2083      C2084   1.403       .  A
C2083      H2092   1.083       .  S
C2084      C2090   1.413       .  A
C2084      C2085   1.414       .  A
C2085      C2087   1.399       .  A
C2085      C2086   1.407       .  A
C2086      H2093   1.083       .  S
C2087      C2088   1.396       .  A
C2087      H2094   1.084       .  S
C2088      C2089   1.410       .  A
C2088      H2095   1.083       .  S
C2089      C2090   1.411       .  A
C2090      H2096   1.084       .  S
C2097      C2098   1.404       .  A
C2097      C2102   1.404       .  A
C2098      C2099   1.401       .  A
C2098      H2107   1.083       .  S
C2099      C2100   1.405       .  A
C2099      H2108   1.083       .  S
C2100      C2106   1.405       .  A
C2100      C2101   1.412       .  A
C2101      C2103   1.400       .  A
C2101      C2102   1.399       .  A
C2102      H2109   1.085       .  S
C2103      C2104   1.394       .  A
C2103      H2110   1.084       .  S
C2104      C2105   1.404       .  A
C2104      H2111   1.082       .  S
C2105      C2106   1.409       .  A
C2106      H2112   1.083       .  S
C2113      C2114   1.403       .  A
C2113      C2118   1.405       .  A
C2114      C2115   1.391       .  A
C2114      H2123   1.084       .  S
C2115      C2116   1.399       .  A
C2115      H2124   1.084       .  S
C2116      C2122   1.397       .  A
C2116      C2117   1.414       .  A
C2117      C2119   1.405   1_655  A
C2117      C2118   1.407       .  A
C2118      H2125   1.084       .  S
C2119      C2120   1.402       .  A
C2119      H2126   1.083       .  S
C2120      C2121   1.404       .  A
C2120      H2127   1.083       .  S
C2121      C2122   1.402   1_455  A
C2122      H2128   1.084       .  S
C2129      C2130   1.404       .  A
C2129      C2134   1.404       .  A
C2130      C2131   1.395       .  A
C2130      H2139   1.084       .  S
C2131      C2132   1.401       .  A
C2131      H2140   1.084       .  S
C2132      C2138   1.402       .  A
C2132      C2133   1.415       .  A
C2133      C2135   1.403   1_655  A
C2133      C2134   1.407       .  A
C2134      H2141   1.084       .  S
C2135      C2136   1.400       .  A
C2135      H2142   1.083       .  S
C2136      C2137   1.405       .  A
C2136      H2143   1.082       .  S
C2137      C2138   1.406   1_455  A
C2138      H2144   1.083       .  S
C2145      C2146   1.408       .  A
C2145      C2150   1.408       .  A
C2146      C2147   1.394       .  A
C2146      H2155   1.083       .  S
C2147      C2148   1.400       .  A
C2147      H2156   1.084       .  S
C2148      C2154   1.402       .  A
C2148      C2149   1.413       .  A
C2149      C2151   1.402       .  A
C2149      C2150   1.406       .  A
C2150      H2157   1.084       .  S
C2151      C2152   1.400       .  A
C2151      H2158   1.084       .  S
C2152      C2153   1.407       .  A
C2152      H2159   1.082       .  S
C2153      C2154   1.407       .  A
C2154      H2160   1.082       .  S
C2161      C2162   1.402       .  A
C2161      C2166   1.402       .  A
C2162      C2163   1.401       .  A
C2162      H2171   1.083       .  S
C2163      C2164   1.405       .  A
C2163      H2172   1.083       .  S
C2164      C2170   1.407       .  A
C2164      C2165   1.415       .  A
C2165      C2167   1.400       .  A
C2165      C2166   1.402       .  A
C2166      H2173   1.085       .  S
C2167      C2168   1.395       .  A
C2167      H2174   1.084       .  S
C2168      C2169   1.406       .  A
C2168      H2175   1.083       .  S
C2169      C2170   1.408       .  A
C2170      H2176   1.084       .  S
C2177      C2178   1.405       .  A
C2177      C2182   1.406       .  A
C2178      C2179   1.400       .  A
C2178      H2187   1.083       .  S
C2179      C2180   1.404       .  A
C2179      H2188   1.084       .  S
C2180      C2186   1.406       .  A
C2180      C2181   1.414       .  A
C2181      C2183   1.401       .  A
C2181      C2182   1.404       .  A
C2182      H2189   1.084       .  S
C2183      C2184   1.397       .  A
C2183      H2190   1.084       .  S
C2184      C2185   1.405       .  A
C2184      H2191   1.082       .  S
C2185      C2186   1.408       .  A
C2186      H2192   1.084       .  S
C2193      C2194   1.409       .  A
C2193      C2198   1.405       .  A
C2194      C2195   1.401       .  A
C2194      H2203   1.081       .  S
C2195      C2196   1.403       .  A
C2195      H2204   1.084       .  S
C2196      C2202   1.411       .  A
C2196      C2197   1.414       .  A
C2197      C2199   1.398       .  A
C2197      C2198   1.403       .  A
C2198      H2205   1.082       .  S
C2199      C2200   1.393       .  A
C2199      H2206   1.084       .  S
C2200      C2201   1.408       .  A
C2200      H2207   1.083       .  S
C2201      C2202   1.408       .  A
C2202      H2208   1.084       .  S
C2209      C2210   1.403       .  A
C2209      C2214   1.407       .  A
C2210      C2211   1.392       .  A
C2210      H2219   1.083       .  S
C2211      C2212   1.400       .  A
C2211      H2220   1.084       .  S
C2212      C2218   1.396       .  A
C2212      C2213   1.413       .  A
C2213      C2215   1.405       .  A
C2213      C2214   1.405       .  A
C2214      H2221   1.084       .  S
C2215      C2216   1.402       .  A
C2215      H2222   1.083       .  S
C2216      C2217   1.404       .  A
C2216      H2223   1.083       .  S
C2217      C2218   1.405       .  A
C2218      H2224   1.084       .  S
C2225      C2226   1.407       .  A
C2225      C2230   1.410       .  A
C2226      C2227   1.390       .  A
C2226      H2235   1.080       .  S
C2227      C2228   1.397       .  A
C2227      H2236   1.084       .  S
C2228      C2234   1.396       .  A
C2228      C2229   1.411       .  A
C2229      C2231   1.405       .  A
C2229      C2230   1.406       .  A
C2230      H2237   1.082       .  S
C2231      C2232   1.402       .  A
C2231      H2238   1.083       .  S
C2232      C2233   1.406       .  A
C2232      H2239   1.083       .  S
C2233      C2234   1.406       .  A
C2234      H2240   1.084       .  S
