geometry optimzed in LAMMPS
_audit_creation_date              2020-11-30 
_audit_creation_method            'lammps2cif' 
_symmetry_space_group_name_H-M    'P1' 
_symmetry_Int_Tables_number       1 
_symmetry_cell_setting            triclinic 
loop_ 
_symmetry_equiv_pos_as_xyz 
  x,y,z 
_cell_length_a                    110.7224616 
_cell_length_b                    110.60301437532853 
_cell_length_c                    110.63150933876352 
_cell_angle_alpha                 89.99420174298116 
_cell_angle_beta                  90.00423463015264 
_cell_angle_gamma                 89.99258856809912 
loop_ 
_atom_site_label 
_atom_site_type_symbol 
_atom_site_fract_x 
_atom_site_fract_y 
_atom_site_fract_z 
_atom_site_charge 
N1          N  0.95205986  0.66204397  0.56592113    -0.25800
N2          N  0.94607318  0.65328930  0.57142713    -0.33700
C3          C  0.94377435  0.64441017  0.56345515     0.02500
C4          C  0.94855328  0.64776945  0.55244864     0.08500
C5          C  0.95374269  0.65897252  0.55426519    -0.04600
H6          H  0.93879563  0.63624167  0.56548156     0.09200
H7          H  0.95819713  0.66457090  0.54759980     0.10400
Cu8        Cu  0.94069587  0.65414904  0.58931997     0.44200
Cu9        Cu  0.95697554  0.67794939  0.57452294     0.42000
Cu10       Cu  0.94642293  0.68195085  0.60562324     0.43900
N11         N  0.93512282  0.65719455  0.60691315    -0.33200
N12         N  0.93706810  0.66736189  0.61290594    -0.27500
C13         C  0.93194345  0.66648595  0.62391687    -0.03600
C14         C  0.92659888  0.65523536  0.62480489     0.08600
C15         C  0.92874111  0.64958991  0.61391324     0.02400
H16         H  0.93198613  0.67355297  0.63067651     0.10100
H17         H  0.92573055  0.64069398  0.61118297     0.09200
N18         N  0.95618733  0.69483901  0.59602942    -0.34700
N19         N  0.96004086  0.69332023  0.58480129    -0.26900
C20         C  0.96604499  0.70328590  0.58127561    -0.02100
C21         C  0.96594942  0.71140794  0.59072082     0.06500
C22         C  0.95965500  0.70583332  0.59993432     0.04600
H23         H  0.97015372  0.70450403  0.57248886     0.09700
H24         H  0.95774231  0.70946544  0.60880811     0.08500
N25         N  0.05768558  0.53771383  0.34132647    -0.25800
N26         N  0.06325665  0.54308362  0.35042999    -0.33700
C27         C  0.05546329  0.54451303  0.35962365     0.02500
C28         C  0.04449823  0.53979603  0.35611948     0.08500
C29         C  0.04614131  0.53556550  0.34449213    -0.04600
H30         H  0.05757368  0.54889781  0.36810710     0.09200
H31         H  0.03942488  0.53147894  0.33868250     0.10400
Cu32       Cu  0.08092168  0.54894385  0.34970409     0.44200
Cu33       Cu  0.06606112  0.53432879  0.32489965     0.42000
Cu34       Cu  0.09645597  0.54693545  0.32113344     0.43900
N35         N  0.09812852  0.55550061  0.34689344    -0.33200
N36         N  0.10384529  0.55497879  0.33641071    -0.27500
C37         C  0.11461151  0.56053087  0.33753444    -0.03600
C38         C  0.11561296  0.56465050  0.34927750     0.08600
C39         C  0.10505168  0.56135993  0.35496056     0.02400
H40         H  0.12109492  0.56165431  0.33030657     0.10100
H41         H  0.10245053  0.56330534  0.36418268     0.09200
N42         N  0.08706899  0.53773943  0.30771085    -0.34700
N43         N  0.07615883  0.53305026  0.30915082    -0.26900
C44         C  0.07273970  0.52770209  0.29878048    -0.02100
C45         C  0.08191617  0.52912065  0.29048103     0.06500
C46         C  0.09085862  0.53550422  0.29636807     0.04600
H47         H  0.06416879  0.52322332  0.29737917     0.09700
H48         H  0.09945082  0.53836009  0.29269441     0.08500
N49         N  0.82947666  0.43405354  0.46454200    -0.25800
N50         N  0.83863860  0.42856174  0.45919486    -0.33700
C51         C  0.84735634  0.43670620  0.45691008     0.02500
C52         C  0.84344717  0.44779588  0.46104227     0.08500
C53         C  0.83210542  0.44586009  0.46581815    -0.04600
H54         H  0.85578226  0.43473014  0.45237288     0.09200
H55         H  0.82611407  0.45253685  0.46970523     0.10400
Cu56       Cu  0.83855179  0.41041687  0.45468938     0.44200
Cu57       Cu  0.81365306  0.42527333  0.46921967     0.42000
Cu58       Cu  0.81121725  0.39349819  0.46095716     0.43900
N59         N  0.83612028  0.39245403  0.45010872    -0.33200
N60         N  0.82614982  0.38624926  0.45232914    -0.27500
C61         C  0.82731839  0.37506563  0.44768441    -0.03600
C62         C  0.83855437  0.37428380  0.44236040     0.08600
C63         C  0.84389909  0.38540809  0.44400593     0.02400
H64         H  0.82039882  0.36816409  0.44791226     0.10100
H65         H  0.85264726  0.38829173  0.44074352     0.09200
N66         N  0.79757294  0.40323360  0.46927331    -0.34700
N67         N  0.79849264  0.41477439  0.47229368    -0.26900
C68         C  0.78804285  0.41842126  0.47728905    -0.02100
C69         C  0.78025512  0.40870944  0.47739495     0.06500
C70         C  0.78650171  0.39922708  0.47226666     0.04600
H71         H  0.78623489  0.42749237  0.48047145     0.09700
H72         H  0.78323494  0.39014026  0.47070865     0.08500
N73         N  0.94917484  0.54744554  0.42578401    -0.25800
N74         N  0.95502384  0.55687892  0.43023405    -0.33700
C75         C  0.96537759  0.55838136  0.42405830     0.02500
C76         C  0.96600680  0.54947751  0.41535714     0.08500
C77         C  0.95564411  0.54268985  0.41665462    -0.04600
H78         H  0.97198314  0.56536092  0.42585685     0.09200
H79         H  0.95304538  0.53481751  0.41146599     0.10400
Cu80       Cu  0.94881491  0.56717329  0.44461262     0.44200
Cu81       Cu  0.93286638  0.54124984  0.43252329     0.42000
Cu82       Cu  0.92005026  0.55835964  0.45731722     0.43900
N83         N  0.94067722  0.57603535  0.45898274    -0.33200
N84         N  0.93010709  0.57286210  0.46356428    -0.27500
C85         C  0.92754105  0.58008425  0.47300540    -0.03600
C86         C  0.93694292  0.58814954  0.47436755     0.08600
C87         C  0.94512902  0.58536547  0.46538880     0.02400
H88         H  0.91959063  0.57929417  0.47863156     0.10100
H89         H  0.95379478  0.58959141  0.46379789     0.09200
N90         N  0.91227877  0.54285970  0.45025754    -0.34700
N91         N  0.91697900  0.53659103  0.44122527    -0.26900
C92         C  0.91012624  0.52675401  0.43922418    -0.02100
C93         C  0.90070236  0.52691615  0.44736954     0.06500
C94         C  0.90230659  0.53718165  0.45425233     0.04600
H95         H  0.91206125  0.51985649  0.43256756     0.09700
H96         H  0.89685599  0.54013640  0.46181086     0.08500
N97         N  0.63811411  0.58478974  0.96059176    -0.25800
N98         N  0.62920828  0.59072461  0.95526338    -0.33700
C99         C  0.61972588  0.58326703  0.95389873     0.02500
C100        C  0.62283739  0.57215629  0.95858817     0.08500
C101        C  0.63452413  0.57336107  0.96275998    -0.04600
H102        H  0.61125005  0.58574038  0.94970574     0.09200
H103        H  0.64003405  0.56646703  0.96697215     0.10400
Cu104      Cu  0.63030601  0.60857462  0.94976148     0.44200
Cu105      Cu  0.65470764  0.59256560  0.96452871     0.42000
Cu106      Cu  0.65847702  0.62392429  0.95499471     0.43900
N107        N  0.63354142  0.62622115  0.94444148    -0.33200
N108        N  0.64390466  0.63187728  0.94626935    -0.27500
C109        C  0.64318420  0.64308728  0.94157322    -0.03600
C110        C  0.63182520  0.64446855  0.93661314     0.08600
C111        C  0.62594269  0.63365310  0.93855003     0.02400
H112        H  0.65040561  0.64967322  0.94169898     0.10100
H113        H  0.61686675  0.63130224  0.93579631     0.09200
N114        N  0.67154991  0.61405590  0.96414122    -0.34700
N115        N  0.67019585  0.60267701  0.96759857    -0.26900
C116        C  0.68030163  0.59903282  0.97329436    -0.02100
C117        C  0.68832412  0.60857303  0.97339142     0.06500
C118        C  0.68254776  0.61794641  0.96754741     0.04600
H119        H  0.68168176  0.59011271  0.97706645     0.09700
H120        H  0.68605424  0.62692358  0.96587960     0.08500
N121        N  0.51832569  0.35226807  0.06197611    -0.25800
N122        N  0.52277542  0.36185077  0.06757406    -0.33700
C123        C  0.52441916  0.37079071  0.05952274     0.02500
C124        C  0.52083970  0.36662529  0.04835527     0.08500
C125        C  0.51701080  0.35487760  0.05015391    -0.04600
H126        H  0.52802984  0.37962689  0.06165201     0.09200
H127        H  0.51359031  0.34868002  0.04340864     0.10400
Cu128      Cu  0.52675997  0.36241868  0.08579541     0.44200
Cu129      Cu  0.51441616  0.33615235  0.07081689     0.42000
Cu130      Cu  0.52087147  0.33569397  0.10325644     0.43900
N131        N  0.53091600  0.36092984  0.10392503    -0.33200
N132        N  0.52880798  0.35111754  0.11041780    -0.27500
C133        C  0.53317538  0.35280781  0.12165180    -0.03600
C134        C  0.53820219  0.36422530  0.12215044     0.08600
C135        C  0.53666344  0.36912206  0.11080405     0.02400
H136        H  0.53304174  0.34609576  0.12876499     0.10100
H137        H  0.53983088  0.37782081  0.10764637     0.09200
N138        N  0.51340621  0.32130894  0.09378573    -0.34700
N139        N  0.51112080  0.32143413  0.08203714    -0.26900
C140        C  0.50626686  0.31074168  0.07884554    -0.02100
C141        C  0.50549148  0.30362446  0.08906128     0.06500
C142        C  0.51006676  0.31054374  0.09836473     0.04600
H143        H  0.50343249  0.30838460  0.06978901     0.09700
H144        H  0.51084870  0.30799807  0.10777453     0.08500
N145        N  0.40897732  0.47625614  0.83751489    -0.25800
N146        N  0.40307781  0.47270369  0.84727987    -0.33700
C147        C  0.41091765  0.47149591  0.85647328     0.02500
C148        C  0.42224835  0.47444647  0.85225685     0.08500
C149        C  0.42076899  0.47742211  0.84023333    -0.04600
H150        H  0.40855776  0.46848652  0.86547384     0.09200
H151        H  0.42772740  0.48005409  0.83389356     0.10400
Cu152      Cu  0.38482340  0.46889098  0.84748626     0.44200
Cu153      Cu  0.40064323  0.47883001  0.82093775     0.42000
Cu154      Cu  0.36880105  0.47034650  0.81907382     0.43900
N155        N  0.36708258  0.46353671  0.84537245    -0.33200
N156        N  0.36119623  0.46384740  0.83497222    -0.27500
C157        C  0.35020511  0.45886893  0.83653221    -0.03600
C158        C  0.34922066  0.45534762  0.84847157     0.08600
C159        C  0.36003864  0.45838611  0.85381274     0.02400
H160        H  0.34361803  0.45755738  0.82942864     0.10100
H161        H  0.36278751  0.45656775  0.86302152     0.09200
N162        N  0.37868732  0.47738196  0.80473451    -0.34700
N163        N  0.39021633  0.48047281  0.80545746    -0.26900
C164        C  0.39379754  0.48498091  0.79475122    -0.02100
C165        C  0.38407593  0.48468597  0.78697427     0.06500
C166        C  0.37463708  0.47984809  0.79352714     0.04600
H167        H  0.40275986  0.48837640  0.79285056     0.09700
H168        H  0.36547286  0.47839873  0.79046462     0.08500
N169        N  0.53271150  0.44858345  0.96531967    -0.25800
N170        N  0.52342841  0.44397453  0.95936821    -0.33700
C171        C  0.51989234  0.43371422  0.96484841     0.02500
C172        C  0.52732866  0.43182828  0.97466377     0.08500
C173        C  0.53533769  0.44137844  0.97475873    -0.04600
H174        H  0.51238831  0.42815053  0.96197413     0.09200
H175        H  0.54244495  0.44305605  0.98125510     0.10400
Cu176      Cu  0.51573598  0.45200082  0.94432001     0.44200
Cu177      Cu  0.54115709  0.46460067  0.96053023     0.42000
Cu178      Cu  0.52816270  0.48084125  0.93521039     0.43900
N179        N  0.50924756  0.46202146  0.92991239    -0.33200
N180        N  0.51373107  0.47260946  0.92662877    -0.27500
C181        C  0.50744351  0.47681369  0.91711225    -0.03600
C182        C  0.49865236  0.46843815  0.91432838     0.08600
C183        C  0.49998750  0.45919107  0.92257619     0.02400
H184        H  0.50912449  0.48533920  0.91262191     0.10100
H185        H  0.49459848  0.45106187  0.92327031     0.09200
N186        N  0.54291494  0.48690864  0.94497033    -0.34700
N187        N  0.54771291  0.48095119  0.95416388    -0.26900
C188        C  0.55719245  0.48724016  0.95843902    -0.02100
C189        C  0.55834689  0.49759202  0.95159012     0.06500
C190        C  0.54920116  0.49714992  0.94314732     0.04600
H191        H  0.56279551  0.48447042  0.96595886     0.09700
H192        H  0.54725746  0.50374077  0.93618582     0.08500
N193        N  0.88751558  0.29231421  0.31647582    -0.25800
N194        N  0.87818564  0.29671770  0.32251102    -0.33700
C195        C  0.86886669  0.29829084  0.31488968     0.02500
C196        C  0.87250744  0.29470286  0.30354162     0.08500
C197        C  0.88435150  0.29096402  0.30479212    -0.04600
H198        H  0.86015894  0.30193755  0.31741440     0.09200
H199        H  0.89026679  0.28765960  0.29774669     0.10400
Cu200      Cu  0.87852957  0.30094072  0.34068798     0.44200
Cu201      Cu  0.90414777  0.28873887  0.32451231     0.42000
Cu202      Cu  0.90663560  0.29693839  0.35642325     0.43900
N203        N  0.88101171  0.30560848  0.35858633    -0.33200
N204        N  0.89135939  0.30424229  0.36439366    -0.27500
C205        C  0.89017983  0.30862867  0.37567603    -0.03600
C206        C  0.87853503  0.31288628  0.37693735     0.08600
C207        C  0.87295998  0.31088978  0.36598352     0.02400
H208        H  0.89733273  0.30893482  0.38233177     0.10100
H209        H  0.86384627  0.31335745  0.36345786     0.09200
N210        N  0.92053235  0.28934984  0.34642832    -0.34700
N211        N  0.91966968  0.28632799  0.33487971    -0.26900
C212        C  0.93029443  0.28165593  0.33123348    -0.02100
C213        C  0.93812571  0.28178411  0.34094605     0.06500
C214        C  0.93169908  0.28669415  0.35042045     0.04600
H215        H  0.93216520  0.27843985  0.32219094     0.09700
H216        H  0.93487851  0.28824170  0.35953764     0.08500
N217        N  0.76493054  0.18534282  0.08694091    -0.25800
N218        N  0.76875232  0.17966203  0.09674654    -0.33700
C219        C  0.77088182  0.18782234  0.10549594     0.02500
C220        C  0.76827105  0.19913427  0.10096419     0.08500
C221        C  0.76452614  0.19730248  0.08920093    -0.04600
H222        H  0.77430509  0.18568072  0.11440291     0.09200
H223        H  0.76188868  0.20413106  0.08271382     0.10400
Cu224      Cu  0.77176537  0.16120012  0.09764112     0.44200
Cu225      Cu  0.76090411  0.17650034  0.07087887     0.42000
Cu226      Cu  0.76728559  0.14406078  0.07037872     0.43900
N227        N  0.77622033  0.14308125  0.09605909    -0.33200
N228        N  0.77474371  0.13677514  0.08601069    -0.27500
C229        C  0.77935510  0.12562216  0.08763162    -0.03600
C230        C  0.78388263  0.12494890  0.09924913     0.08600
C231        C  0.78179193  0.13613728  0.10433974     0.02400
H232        H  0.77973665  0.11868799  0.08074641     0.10100
H233        H  0.78451806  0.13916996  0.11322684     0.09200
N234        N  0.75988556  0.15359049  0.05596828    -0.34700
N235        N  0.75759984  0.16534107  0.05614281    -0.26900
C236        C  0.75273401  0.16858998  0.04547666    -0.02100
C237        C  0.75194667  0.15841237  0.03831206     0.06500
C238        C  0.75652774  0.14906585  0.04518416     0.04600
H239        H  0.74988752  0.17766018  0.04317414     0.09700
H240        H  0.75727856  0.13966236  0.04260165     0.08500
N241        N  0.65970237  0.41077994  0.21221153    -0.25800
N242        N  0.65402874  0.40220942  0.20610953    -0.33700
C243        C  0.66177844  0.39316587  0.20376130     0.02500
C244        C  0.67281271  0.39621203  0.20862707     0.08500
C245        C  0.67126180  0.40740711  0.21391805    -0.04600
H246        H  0.65956461  0.38507019  0.19873928     0.09200
H247        H  0.67802181  0.41276192  0.21852185     0.10400
Cu248      Cu  0.63619832  0.40329354  0.20074312     0.44200
Cu249      Cu  0.65140455  0.42671572  0.21754742     0.42000
Cu250      Cu  0.61991495  0.43038389  0.20803780     0.43900
N251        N  0.61865603  0.40647246  0.19525299    -0.33200
N252        N  0.61260639  0.41644798  0.19784435    -0.27500
C253        C  0.60166629  0.41591549  0.19254856    -0.03600
C254        C  0.60090345  0.40508267  0.18639067     0.08600
C255        C  0.61177655  0.39932075  0.18825919     0.02400
H256        H  0.59490193  0.42296118  0.19298229     0.10100
H257        H  0.61458844  0.39068658  0.18462529     0.09200
N258        N  0.62947227  0.44302200  0.21806517    -0.34700
N259        N  0.64085473  0.44170023  0.22149215    -0.26900
C260        C  0.64426865  0.45154485  0.22775763    -0.02100
C261        C  0.63457754  0.45935253  0.22827340     0.06500
C262        C  0.62535271  0.45374410  0.22206264     0.04600
H263        H  0.65314878  0.45290964  0.23160022     0.09700
H264        H  0.61633978  0.45718835  0.22051378     0.08500
N265        N  0.79757228  0.30899433  0.21388302    -0.25800
N266        N  0.80248851  0.29973067  0.20812973    -0.33700
C267        C  0.81198687  0.29568726  0.21456533     0.02500
C268        C  0.81302670  0.30277746  0.22477932     0.08500
C269        C  0.80378782  0.31109688  0.22410747    -0.04600
H270        H  0.81757622  0.28806042  0.21207544     0.09200
H271        H  0.80161617  0.31805004  0.23063190     0.10400
Cu272      Cu  0.79579095  0.29274817  0.19203457     0.44200
Cu273      Cu  0.78243683  0.31820126  0.20792200     0.42000
Cu274      Cu  0.76942444  0.30789409  0.17989222     0.43900
N275        N  0.78688644  0.28726722  0.17643727    -0.33200
N276        N  0.77728420  0.29285036  0.17201491    -0.27500
C277        C  0.77336175  0.28685382  0.16219443    -0.03600
C278        C  0.78087150  0.27708024  0.16037597     0.08600
C279        C  0.78933190  0.27755150  0.16952999     0.02400
H280        H  0.76546790  0.28927913  0.15696475     0.10100
H281        H  0.79654905  0.27117736  0.17121957     0.09200
N282        N  0.76241937  0.32202609  0.18995435    -0.34700
N283        N  0.76714992  0.32575811  0.20027704    -0.26900
C284        C  0.76026377  0.33468675  0.20481359    -0.02100
C285        C  0.75080940  0.33661378  0.19693576     0.06500
C286        C  0.75239005  0.32847870  0.18762717     0.04600
H287        H  0.76191365  0.33925925  0.21329891     0.09700
H288        H  0.74658158  0.32716557  0.17987375     0.08500
N289        N  0.55531663  0.97529116  0.64824497    -0.25800
N290        N  0.56112359  0.97116225  0.63864378    -0.33700
C291        C  0.55325715  0.96985743  0.62947610     0.02500
C292        C  0.54200382  0.97332814  0.63352295     0.08500
C293        C  0.54356823  0.97672995  0.64542965    -0.04600
H294        H  0.55554931  0.96647987  0.62059097     0.09200
H295        H  0.53669275  0.97988005  0.65162211     0.10400
Cu296      Cu  0.57932909  0.96686422  0.63853556     0.44200
Cu297      Cu  0.56366266  0.97835617  0.66479022     0.42000
Cu298      Cu  0.59551228  0.97019388  0.66668586     0.43900
N299        N  0.59716051  0.96170584  0.64086465    -0.33200
N300        N  0.60310406  0.96282592  0.65117751    -0.27500
C301        C  0.61420122  0.95801283  0.64987990    -0.03600
C302        C  0.61521474  0.95372503  0.63820363     0.08600
C303        C  0.60429255  0.95616481  0.63273481     0.02400
H304        H  0.62088302  0.95740571  0.65699057     0.10100
H305        H  0.60158861  0.95378704  0.62364234     0.09200
N306        N  0.58566460  0.97736353  0.68097360    -0.34700
N307        N  0.57409588  0.98031144  0.68028880    -0.26900
C308        C  0.57050482  0.98475496  0.69102997    -0.02100
C309        C  0.58026978  0.98456718  0.69877822     0.06500
C310        C  0.58973183  0.97985672  0.69216764     0.04600
H311        H  0.56149189  0.98797646  0.69299604     0.09700
H312        H  0.59890900  0.97843804  0.69520868     0.08500
N313        N  0.32718107  0.08076698  0.52204637    -0.25800
N314        N  0.33664323  0.08625742  0.52684732    -0.33700
C315        C  0.34567797  0.07826293  0.52812298     0.02500
C316        C  0.34169205  0.06725210  0.52392198     0.08500
C317        C  0.32995232  0.06906826  0.52013263    -0.04600
H318        H  0.35440971  0.08029170  0.53201596     0.09200
H319        H  0.32384411  0.06240287  0.51641330     0.10400
Cu320      Cu  0.33673925  0.10409800  0.53222852     0.44200
Cu321      Cu  0.31096885  0.08954034  0.51869665     0.42000
Cu322      Cu  0.30905022  0.12082716  0.52931824     0.43900
N323        N  0.33446826  0.12134821  0.53890364    -0.33200
N324        N  0.32427638  0.12752165  0.53804232    -0.27500
C325        C  0.32560317  0.13814088  0.54385250    -0.03600
C326        C  0.33717563  0.13856152  0.54850386     0.08600
C327        C  0.34254485  0.12781511  0.54524895     0.02400
H328        H  0.31861728  0.14491524  0.54478618     0.10100
H329        H  0.35154962  0.12478270  0.54753865     0.09200
N330        N  0.29530383  0.11191767  0.52011396    -0.34700
N331        N  0.29602239  0.10059523  0.51629075    -0.26900
C332        C  0.28566103  0.09763700  0.51067339    -0.02100
C333        C  0.27811935  0.10755029  0.51099831     0.06500
C334        C  0.28444962  0.11645076  0.51701837     0.04600
H335        H  0.28378634  0.08892114  0.50665092     0.09700
H336        H  0.28142351  0.12553788  0.51900089     0.08500
N337        N  0.45342824  0.85279057  0.42078587    -0.25800
N338        N  0.44886308  0.86243381  0.41538326    -0.33700
C339        C  0.44779213  0.87140977  0.42350111     0.02500
C340        C  0.45187956  0.86718025  0.43448200     0.08500
C341        C  0.45538182  0.85537376  0.43251242    -0.04600
H342        H  0.44399322  0.88022357  0.42161090     0.09200
H343        H  0.45880873  0.84904209  0.43913243     0.10400
Cu344      Cu  0.44329582  0.86270886  0.39753560     0.44200
Cu345      Cu  0.45617574  0.83642066  0.41208215     0.42000
Cu346      Cu  0.44554874  0.83452465  0.38111210     0.43900
N347        N  0.43666710  0.86025558  0.38022432    -0.33200
N348        N  0.43736432  0.84992235  0.37424423    -0.27500
C349        C  0.43171729  0.85115175  0.36354361    -0.03600
C350        C  0.42731847  0.86279861  0.36283082     0.08600
C351        C  0.43056291  0.86833812  0.37350822     0.02400
H352        H  0.43072081  0.84404098  0.35690482     0.10100
H353        H  0.42843998  0.87746424  0.37631277     0.09200
N354        N  0.45415189  0.82047248  0.39004754    -0.34700
N355        N  0.45801235  0.82116236  0.40134660    -0.26900
C356        C  0.46332021  0.81064593  0.40437090    -0.02100
C357        C  0.46274931  0.80304852  0.39450137     0.06500
C358        C  0.45690340  0.80949864  0.38557702     0.04600
H359        H  0.46737216  0.80873636  0.41306264     0.09700
H360        H  0.45488097  0.80650337  0.37649125     0.08500
N361        N  0.45540054  0.95997116  0.55589114    -0.25800
N362        N  0.44998516  0.97011299  0.55917585    -0.33700
C363        C  0.45580895  0.97479668  0.56877522     0.02500
C364        C  0.46528347  0.96719821  0.57160259     0.08500
C365        C  0.46480546  0.95791610  0.56329967    -0.04600
H366        H  0.45341896  0.98317208  0.57322343     0.09200
H367        H  0.47093145  0.95033155  0.56256219     0.10400
Cu368      Cu  0.43515740  0.97720895  0.55021090     0.44200
Cu369      Cu  0.45007414  0.94957468  0.54125967     0.42000
Cu370      Cu  0.42404673  0.95992862  0.52455167     0.43900
N371        N  0.42051702  0.98229019  0.53970646    -0.33200
N372        N  0.41643320  0.97597176  0.53040821    -0.27500
C373        C  0.40694144  0.98177856  0.52552126    -0.03600
C374        C  0.40503154  0.99219559  0.53208034     0.08600
C375        C  0.41373464  0.99229060  0.54098715     0.02400
H376        H  0.40188488  0.97866816  0.51775226     0.10100
H377        H  0.41508429  0.99911837  0.54785722     0.09200
N378        N  0.43377544  0.94461119  0.52004233    -0.34700
N379        N  0.44334765  0.94084777  0.52612670    -0.26900
C380        C  0.44786459  0.93095448  0.52069173    -0.02100
C381        C  0.44075205  0.92842246  0.51077982     0.06500
C382        C  0.43192714  0.93721657  0.51057302     0.04600
H383        H  0.45583418  0.92611688  0.52362972     0.09700
H384        H  0.42483659  0.93831227  0.50393369     0.08500
N385        N  0.16204809  0.10412991  0.77489029    -0.25800
N386        N  0.15658136  0.11351490  0.77988694    -0.33700
C387        C  0.16455905  0.12257119  0.78119076     0.02500
C388        C  0.17553552  0.11869160  0.77679825     0.08500
C389        C  0.17370159  0.10698443  0.77286222    -0.04600
H390        H  0.16249364  0.13132620  0.78503148     0.09200
H391        H  0.18029550  0.10100085  0.76882676     0.10400
Cu392      Cu  0.13855529  0.11372948  0.78469742     0.44200
Cu393      Cu  0.15323590  0.08798494  0.77112235     0.42000
Cu394      Cu  0.12136989  0.08658061  0.77928591     0.43900
N395        N  0.12047829  0.11194741  0.78894511    -0.33200
N396        N  0.11416048  0.10199256  0.78699178    -0.27500
C397        C  0.10285993  0.10359367  0.79114258    -0.03600
C398        C  0.10211738  0.11510090  0.79586423     0.08600
C399        C  0.11338796  0.12016428  0.79439005     0.02400
H400        H  0.09584292  0.09678817  0.79100294     0.10100
H401        H  0.11632519  0.12901909  0.79732779     0.09200
N402        N  0.13070680  0.07252038  0.77127311    -0.34700
N403        N  0.14226831  0.07301615  0.76827532    -0.26900
C404        C  0.14541454  0.06253548  0.76297135    -0.02100
C405        C  0.13535694  0.05518742  0.76265568     0.06500
C406        C  0.12619172  0.06172791  0.76796829     0.04600
H407        H  0.15430381  0.06050920  0.75946056     0.09700
H408        H  0.11690166  0.05895675  0.76918192     0.08500
N409        N  0.26782743  0.33022113  0.90160865    -0.25800
N410        N  0.27412884  0.33561459  0.89300128    -0.33700
C411        C  0.27623699  0.32769865  0.88403484     0.02500
C412        C  0.27101291  0.31683600  0.88715988     0.08500
C413        C  0.26572948  0.31868303  0.89831803    -0.04600
H414        H  0.28105694  0.32977153  0.87578501     0.09200
H415        H  0.26064482  0.31220423  0.90358773     0.10400
Cu416      Cu  0.27927055  0.35356539  0.89352648     0.44200
Cu417      Cu  0.26238810  0.33900071  0.91730363     0.42000
Cu418      Cu  0.27106323  0.37082454  0.91988886     0.43900
N419        N  0.28332009  0.37168103  0.89561618    -0.33200
N420        N  0.28035227  0.37809797  0.90525649    -0.27500
C421        C  0.28449494  0.38946505  0.90385355    -0.03600
C422        C  0.29028471  0.39012342  0.89281160     0.08600
C423        C  0.28939950  0.37874379  0.88782675     0.02400
H424        H  0.28349350  0.39663138  0.91043142     0.10100
H425        H  0.29302878  0.37575466  0.87925427     0.09200
N426        N  0.26187533  0.36126474  0.93322192    -0.34700
N427        N  0.25868636  0.34976500  0.93226254    -0.26900
C428        C  0.25284514  0.34641916  0.94239899    -0.02100
C429        C  0.25236518  0.35626789  0.95004236     0.06500
C430        C  0.25814963  0.36551902  0.94399720     0.04600
H431        H  0.24918992  0.33749760  0.94404068     0.09700
H432        H  0.25949982  0.37468008  0.94714608     0.08500
N433        N  0.39108830  0.22760929  0.66964332    -0.25800
N434        N  0.38164221  0.22265361  0.66426232    -0.33700
C435        C  0.37248424  0.22190297  0.67218564     0.02500
C436        C  0.37637608  0.22661192  0.68302889     0.08500
C437        C  0.38818380  0.23016028  0.68118328    -0.04600
H438        H  0.36374907  0.21796909  0.67025179     0.09200
H439        H  0.39427671  0.23406509  0.68775568     0.10400
Cu440      Cu  0.38178995  0.21628879  0.64672141     0.44200
Cu441      Cu  0.40757169  0.23000171  0.66108323     0.42000
Cu442      Cu  0.41007981  0.21750191  0.63062993     0.43900
N443        N  0.38429557  0.20892206  0.62975668    -0.33200
N444        N  0.39468027  0.20921149  0.62385744    -0.27500
C445        C  0.39341311  0.20323111  0.61333538    -0.03600
C446        C  0.38168593  0.19904906  0.61267475     0.08600
C447        C  0.37614365  0.20277230  0.62318420     0.02400
H448        H  0.40052167  0.20192773  0.60675620     0.10100
H449        H  0.36694092  0.20100532  0.62595044     0.09200
N450        N  0.42399985  0.22637732  0.63954538    -0.34700
N451        N  0.42305944  0.23090898  0.65058096    -0.26900
C452        C  0.43360133  0.23611130  0.65364750    -0.02100
C453        C  0.44148896  0.23477011  0.64410101     0.06500
C454        C  0.43517755  0.22858970  0.63530214     0.04600
H455        H  0.43534762  0.24058468  0.66216614     0.09700
H456        H  0.43841578  0.22595125  0.62646155     0.08500
N457        N  0.25887021  0.20035919  0.78778426    -0.25800
N458        N  0.26485406  0.19625364  0.77828229    -0.33700
C459        C  0.25923864  0.18634029  0.77401867     0.02500
C460        C  0.24929064  0.18416952  0.78120290     0.08500
C461        C  0.24928129  0.19317830  0.78982246    -0.04600
H462        H  0.26214143  0.18118276  0.76623538     0.09200
H463        H  0.24277523  0.19447132  0.79700084     0.10400
Cu464      Cu  0.28019744  0.20448352  0.77141426     0.44200
Cu465      Cu  0.26392139  0.21556431  0.79752437     0.42000
Cu466      Cu  0.29017134  0.23172031  0.78681179     0.43900
N467        N  0.29496844  0.21467562  0.76609498    -0.33200
N468        N  0.29857308  0.22461981  0.77168038    -0.27500
C469        C  0.30831045  0.22908533  0.76594817    -0.03600
C470        C  0.31089135  0.22157474  0.75635046     0.08600
C471        C  0.30231226  0.21254785  0.75665064     0.02400
H472        H  0.31310885  0.23719196  0.76857315     0.10100
H473        H  0.30143121  0.20502002  0.75046926     0.09200
N474        N  0.28044898  0.23674180  0.80198569    -0.34700
N475        N  0.27084685  0.23082254  0.80593268    -0.26900
C476        C  0.26674312  0.23622053  0.81602981    -0.02100
C477        C  0.27414423  0.24594659  0.81848929     0.06500
C478        C  0.28272024  0.24606596  0.80945122     0.04600
H479        H  0.25900094  0.23324296  0.82119654     0.09700
H480        H  0.29009362  0.25239482  0.80839676     0.08500
N481        N  0.13900741  0.93542134  0.02033588    -0.25800
N482        N  0.12966650  0.92933121  0.02461538    -0.33700
C483        C  0.12034974  0.93692749  0.02627647     0.02500
C484        C  0.12400268  0.94832576  0.02286149     0.08500
C485        C  0.13586137  0.94713097  0.01914404    -0.04600
H486        H  0.11165713  0.93436387  0.02993121     0.09200
H487        H  0.14181385  0.95423336  0.01602941     0.10400
Cu488      Cu  0.13013212  0.91115145  0.02868256     0.44200
Cu489      Cu  0.15559856  0.92731054  0.01690524     0.42000
Cu490      Cu  0.15815171  0.89511146  0.02482576     0.43900
N491        N  0.13248816  0.89330982  0.03351222    -0.33200
N492        N  0.14275586  0.88733158  0.03226440    -0.27500
C493        C  0.14142548  0.87619621  0.03702372    -0.03600
C494        C  0.12976568  0.87524304  0.04137811     0.08600
C495        C  0.12436389  0.88620723  0.03905482     0.02400
H496        H  0.14850695  0.86948181  0.03760715     0.10100
H497        H  0.11534448  0.88899169  0.04158240     0.09200
N498        N  0.17203192  0.90536884  0.01738140    -0.34700
N499        N  0.17110844  0.91696776  0.01453740    -0.26900
C500        C  0.18168059  0.92075374  0.00987338    -0.02100
C501        C  0.18956698  0.91109889  0.00980860     0.06500
C502        C  0.18321578  0.90149474  0.01459372     0.04600
H503        H  0.18344141  0.92983535  0.00669228     0.09700
H504        H  0.18643385  0.89234656  0.01588145     0.08500
N505        N  0.90807703  0.03756963  0.14424524    -0.25800
N506        N  0.90187263  0.04197984  0.13502255    -0.33700
C507        C  0.90930049  0.04336025  0.12550572     0.02500
C508        C  0.92068635  0.03963571  0.12891055     0.08500
C509        C  0.91965088  0.03602172  0.14081988    -0.04600
H510        H  0.90667034  0.04715068  0.11688075     0.09200
H511        H  0.92681688  0.03285125  0.14666584     0.10400
Cu512      Cu  0.88383230  0.04685919  0.13596852     0.44200
Cu513      Cu  0.90058462  0.03467417  0.16124644     0.42000
Cu514      Cu  0.86888587  0.04307889  0.16466361     0.43900
N515        N  0.86618529  0.05220118  0.13917462    -0.33200
N516        N  0.86066286  0.05082545  0.14968589    -0.27500
C517        C  0.84959577  0.05583065  0.14901896    -0.03600
C518        C  0.84815809  0.06052995  0.13754585     0.08600
C519        C  0.85880479  0.05811687  0.13154038     0.02400
H520        H  0.84325715  0.05634813  0.15644160     0.10100
H521        H  0.86117652  0.06079437  0.12243982     0.09200
N522        N  0.87940132  0.03598022  0.17848357    -0.34700
N523        N  0.89091681  0.03298518  0.17728541    -0.26900
C524        C  0.89500421  0.02869537  0.18791627    -0.02100
C525        C  0.88561420  0.02903521  0.19611533     0.06500
C526        C  0.87586499  0.03367018  0.18989069     0.04600
H527        H  0.90409032  0.02547087  0.18950364     0.09700
H528        H  0.86684912  0.03517312  0.19334272     0.08500
N529        N  0.01608640  0.16325048  0.91809973    -0.25800
N530        N  0.02008483  0.15382536  0.91193217    -0.33700
C531        C  0.02144983  0.14439787  0.91946237     0.02500
C532        C  0.01813739  0.14809130  0.93087616     0.08500
C533        C  0.01478610  0.16006303  0.92977162    -0.04600
H534        H  0.02483620  0.13560382  0.91684638     0.09200
H535        H  0.01183093  0.16605975  0.93690728     0.10400
Cu536      Cu  0.02425250  0.15432627  0.89377047     0.44200
Cu537      Cu  0.01306007  0.18001348  0.91027644     0.42000
Cu538      Cu  0.02107334  0.18291928  0.87841375     0.43900
N539        N  0.02940649  0.15716125  0.87608471    -0.33200
N540        N  0.02837970  0.16764922  0.87043684    -0.27500
C541        C  0.03326637  0.16666263  0.85934788    -0.03600
C542        C  0.03748806  0.15500160  0.85805586     0.08600
C543        C  0.03495906  0.14921639  0.86877961     0.02400
H544        H  0.03401049  0.17397579  0.85289462     0.10100
H545        H  0.03733526  0.14005685  0.87126468     0.09200
N546        N  0.01352403  0.19667757  0.88861615    -0.34700
N547        N  0.01064341  0.19562030  0.90017990    -0.26900
C548        C  0.00567492  0.20603801  0.90398747    -0.02100
C549        C  0.00545206  0.21394980  0.89436680     0.06500
C550        C  0.01046101  0.20779827  0.88475955     0.04600
H551        H  0.00229821  0.20763482  0.91302214     0.09700
H552        H  0.01161936  0.21105775  0.87561319     0.08500
N553        N  0.03382133  0.07102753  0.01858163    -0.25800
N554        N  0.02382260  0.07513331  0.02368823    -0.33700
C555        C  0.01968274  0.08458897  0.01725068     0.02500
C556        C  0.02747222  0.08646567  0.00770403     0.08500
C557        C  0.03631556  0.07775505  0.00876611    -0.04600
H558        H  0.01150146  0.08954748  0.01924775     0.09200
H559        H  0.04385574  0.07624281  0.00273737     0.10400
Cu560      Cu  0.01594482  0.06738872  0.03883544     0.44200
Cu561      Cu  0.04332451  0.05610507  0.02473571     0.42000
Cu562      Cu  0.03081231  0.04075219  0.05073886     0.43900
N563        N  0.00967911  0.05773877  0.05364212    -0.33200
N564        N  0.01510096  0.04800500  0.05799475    -0.27500
C565        C  0.00863775  0.04372178  0.06736898    -0.03600
C566        C  0.99873648  0.05113800  0.06894806     0.08600
C567        C  0.99962863  0.05991182  0.06012757     0.02400
H568        H  0.01089634  0.03571539  0.07251537     0.10100
H569        H  0.99336359  0.06722377  0.05842020     0.09200
N570        N  0.04614854  0.03493437  0.04163288    -0.34700
N571        N  0.05072772  0.04056335  0.03212802    -0.26900
C572        C  0.06034967  0.03432970  0.02808092    -0.02100
C573        C  0.06185649  0.02435324  0.03541229     0.06500
C574        C  0.05273952  0.02496259  0.04389297     0.04600
H575        H  0.06567458  0.03675799  0.02024918     0.09700
H576        H  0.05087292  0.01853058  0.05101978     0.08500
N577        N  0.30543317  0.91334379  0.27412217    -0.25800
N578        N  0.31046583  0.90452199  0.28043435    -0.33700
C579        C  0.30220657  0.89585964  0.28248774     0.02500
C580        C  0.29150825  0.89942511  0.27721729     0.08500
C581        C  0.29380085  0.91051624  0.27197638    -0.04600
H582        H  0.30387644  0.88761673  0.28748555     0.09200
H583        H  0.28750431  0.91614133  0.26704481     0.10400
Cu584      Cu  0.32822601  0.90465816  0.28620478     0.44200
Cu585      Cu  0.31461179  0.92891814  0.26910868     0.42000
Cu586      Cu  0.34574082  0.93130410  0.27968439     0.43900
N587        N  0.34600850  0.90681507  0.29147710    -0.33200
N588        N  0.35247274  0.91659210  0.28913595    -0.27500
C589        C  0.36353469  0.91527175  0.29400726    -0.03600
C590        C  0.36396343  0.90413303  0.29961231     0.08600
C591        C  0.35275292  0.89900585  0.29788762     0.02400
H592        H  0.37063873  0.92197575  0.29362413     0.10100
H593        H  0.34965222  0.89033386  0.30118042     0.09200
N594        N  0.33684421  0.94475500  0.27014114    -0.34700
N595        N  0.32557974  0.94386548  0.26623042    -0.26900
C596        C  0.32258773  0.95412850  0.26042810    -0.02100
C597        C  0.33243061  0.96176267  0.26074060     0.06500
C598        C  0.34131102  0.95560448  0.26693823     0.04600
H599        H  0.31389466  0.95588805  0.25632604     0.09700
H600        H  0.35033702  0.95874274  0.26897570     0.08500
N601        N  0.07721924  0.79572389  0.16740846    -0.25800
N602        N  0.08609663  0.80139962  0.16178326    -0.33700
C603        C  0.09506838  0.80356874  0.16966385     0.02500
C604        C  0.09162210  0.79904909  0.18073841     0.08500
C605        C  0.08030098  0.79411336  0.17906438    -0.04600
H606        H  0.10345446  0.80808092  0.16746931     0.09200
H607        H  0.07473042  0.78968421  0.18576708     0.10400
Cu608      Cu  0.08560358  0.80598883  0.14371654     0.44200
Cu609      Cu  0.06141848  0.79057037  0.15882589     0.42000
Cu610      Cu  0.05868579  0.79835575  0.12685852     0.43900
N611        N  0.08322118  0.81001762  0.12566181    -0.33200
N612        N  0.07339844  0.80729531  0.11942473    -0.27500
C613        C  0.07468322  0.81141500  0.10804464    -0.03600
C614        C  0.08583393  0.81693061  0.10719445     0.08600
C615        C  0.09101150  0.81591920  0.11846550     0.02400
H616        H  0.06795591  0.81058043  0.10100179     0.10100
H617        H  0.09971543  0.81934683  0.12129562     0.09200
N618        N  0.04545549  0.78939858  0.13668421    -0.34700
N619        N  0.04649906  0.78656973  0.14826490    -0.26900
C620        C  0.03639131  0.78090384  0.15190082    -0.02100
C621        C  0.02867850  0.78015974  0.14215613     0.06500
C622        C  0.03463247  0.78560190  0.13265098     0.04600
H623        H  0.03477732  0.77764010  0.16097796     0.09700
H624        H  0.03135159  0.78677276  0.12351292     0.08500
N625        N  0.20389161  0.68668517  0.39796158    -0.25800
N626        N  0.19918077  0.68072516  0.38873556    -0.33700
C627        C  0.19749095  0.68838678  0.37946417     0.02500
C628        C  0.20132855  0.69967851  0.38304323     0.08500
C629        C  0.20533074  0.69835626  0.39479476    -0.04600
H630        H  0.19355028  0.68594453  0.37085520     0.09200
H631        H  0.20885278  0.70534547  0.40065640     0.10400
Cu632      Cu  0.19448946  0.66267490  0.38936464     0.44200
Cu633      Cu  0.20769270  0.67854271  0.41444927     0.42000
Cu634      Cu  0.19821581  0.64704106  0.41776411     0.43900
N635        N  0.18855095  0.64524645  0.39239362    -0.33200
N636        N  0.18970635  0.63950493  0.40281833    -0.27500
C637        C  0.18420794  0.62867634  0.40198326    -0.03600
C638        C  0.17945001  0.62765524  0.39049022     0.08600
C639        C  0.18232209  0.63826980  0.38465293     0.02400
H640        H  0.18349264  0.62219286  0.40927123     0.10100
H641        H  0.17978161  0.64089727  0.37558077     0.09200
N642        N  0.20706086  0.65684376  0.43112598    -0.34700
N643        N  0.21049943  0.66824517  0.42990683    -0.26900
C644        C  0.21595735  0.67185229  0.44016064    -0.02100
C645        C  0.21592458  0.66227915  0.44815265     0.06500
C646        C  0.21024245  0.65291036  0.44219415     0.04600
H647        H  0.21965292  0.68078012  0.44166610     0.09700
H648        H  0.20853402  0.64391148  0.44562497     0.08500
N649        N  0.20623200  0.82029438  0.28955070    -0.25800
N650        N  0.20044270  0.82439077  0.27993391    -0.33700
C651        C  0.20611462  0.83428517  0.27574230     0.02500
C652        C  0.21591478  0.83647766  0.28309722     0.08500
C653        C  0.21578584  0.82748361  0.29174901    -0.04600
H654        H  0.20336233  0.83939834  0.26787190     0.09200
H655        H  0.22218810  0.82618957  0.29902332     0.10400
Cu656      Cu  0.18530262  0.81617815  0.27282310     0.44200
Cu657      Cu  0.20082507  0.80501745  0.29899397     0.42000
Cu658      Cu  0.17449587  0.78889615  0.28724682     0.43900
N659        N  0.17045408  0.80656781  0.26696118    -0.33200
N660        N  0.16646143  0.79654829  0.27212362    -0.27500
C661        C  0.15666129  0.79264245  0.26606985    -0.03600
C662        C  0.15447825  0.80064231  0.25674410     0.08600
C663        C  0.16334431  0.80932556  0.25752155     0.02400
H664        H  0.15153720  0.78462019  0.26830727     0.10100
H665        H  0.16456856  0.81707202  0.25167585     0.09200
N666        N  0.18407931  0.78368391  0.30250953    -0.34700
N667        N  0.19359382  0.78955244  0.30676551    -0.26900
C668        C  0.19772667  0.78376993  0.31663119    -0.02100
C669        C  0.19046118  0.77385043  0.31863584     0.06500
C670        C  0.18191385  0.77401126  0.30956537     0.04600
H671        H  0.20551689  0.78652136  0.32185224     0.09700
H672        H  0.17473910  0.76753535  0.30810959     0.08500
N673        N  0.80407865  0.60534581  0.71335488    -0.25800
N674        N  0.80949917  0.61473056  0.70830472    -0.33700
C675        C  0.80152438  0.62382153  0.70718383     0.02500
C676        C  0.79061453  0.61994511  0.71174956     0.08500
C677        C  0.79247683  0.60822229  0.71559188    -0.04600
H678        H  0.80350103  0.63253184  0.70319477     0.09200
H679        H  0.78589641  0.60218830  0.71957400     0.10400
Cu680      Cu  0.82732085  0.61470094  0.70270411     0.44200
Cu681      Cu  0.81270720  0.58902671  0.71662993     0.42000
Cu682      Cu  0.84397209  0.58694836  0.70651600     0.43900
N683        N  0.84495032  0.61241712  0.69695500    -0.33200
N684        N  0.85107840  0.60223483  0.69826447    -0.27500
C685        C  0.86202401  0.60353326  0.69312541    -0.03600
C686        C  0.86273599  0.61507191  0.68841733     0.08600
C687        C  0.85180236  0.62046447  0.69096080     0.02400
H688        H  0.86881887  0.59652075  0.69262742     0.10100
H689        H  0.84891269  0.62945260  0.68839909     0.09200
N690        N  0.83478711  0.57303788  0.71514147    -0.34700
N691        N  0.82343772  0.57380649  0.71882216    -0.26900
C692        C  0.82030551  0.56336484  0.72421718    -0.02100
C693        C  0.83014534  0.55572644  0.72388509     0.06500
C694        C  0.83917265  0.56207990  0.71809869     0.04600
H695        H  0.81156183  0.56153802  0.72817472     0.09700
H696        H  0.84827574  0.55903782  0.71627258     0.08500
N697        N  0.70206197  0.83198135  0.58603965    -0.25800
N698        N  0.69745474  0.83769185  0.59547820    -0.33700
C699        C  0.69592883  0.82979924  0.60457571     0.02500
C700        C  0.69976064  0.81862353  0.60066614     0.08500
C701        C  0.70359540  0.82024231  0.58889916    -0.04600
H702        H  0.69215883  0.83202401  0.61331734     0.09200
H703        H  0.70711713  0.81342277  0.58284075     0.10400
Cu704      Cu  0.69282570  0.85576952  0.59556090     0.44200
Cu705      Cu  0.70574883  0.84052714  0.56973515     0.42000
Cu706      Cu  0.69725832  0.87245914  0.56807427     0.43900
N707        N  0.68730404  0.87345942  0.59334808    -0.33200
N708        N  0.68880628  0.87963820  0.58322698    -0.27500
C709        C  0.68366477  0.89060022  0.58449709    -0.03600
C710        C  0.67876643  0.89125608  0.59596103     0.08600
C711        C  0.68119042  0.88027745  0.60132798     0.02400
H712        H  0.68330268  0.89744547  0.57752010     0.10100
H713        H  0.67846829  0.87733353  0.61024758     0.09200
N714        N  0.70550584  0.86299021  0.55410746    -0.34700
N715        N  0.70852798  0.85142023  0.55469124    -0.26900
C716        C  0.71359235  0.84811700  0.54413869    -0.02100
C717        C  0.71374105  0.85806874  0.53662492     0.06500
C718        C  0.70857733  0.86734188  0.54316810     0.04600
H719        H  0.71692209  0.83914578  0.54211535     0.09700
H720        H  0.70714506  0.87655956  0.54022290     0.08500
N721        N  0.57697686  0.72860406  0.81617883    -0.25800
N722        N  0.58684857  0.72496596  0.82184270    -0.33700
C723        C  0.59584424  0.72378890  0.81376816     0.02500
C724        C  0.59138190  0.72684100  0.80254182     0.08500
C725        C  0.57942028  0.72984811  0.80432541    -0.04600
H726        H  0.60491524  0.72085026  0.81591540     0.09200
H727        H  0.57296180  0.73266580  0.79754772     0.10400
Cu728      Cu  0.58752446  0.72133317  0.84018840     0.44200
Cu729      Cu  0.56066579  0.73143827  0.82489573     0.42000
Cu730      Cu  0.55954271  0.72394651  0.85693454     0.43900
N731        N  0.58574455  0.71669527  0.85823425    -0.33200
N732        N  0.57551281  0.71749683  0.86435783    -0.27500
C733        C  0.57723569  0.71302100  0.87554526    -0.03600
C734        C  0.58910758  0.70930915  0.87643391     0.08600
C735        C  0.59424550  0.71171433  0.86534226     0.02400
H736        H  0.57027937  0.71220151  0.88236111     0.10100
H737        H  0.60335405  0.70962082  0.86249365     0.09200
N738        N  0.54491400  0.73045518  0.84716648    -0.34700
N739        N  0.54536595  0.73319684  0.83552909    -0.26900
C740        C  0.53446763  0.73720289  0.83196103    -0.02100
C741        C  0.52685248  0.73693088  0.84181103     0.06500
C742        C  0.53369584  0.73264377  0.85130947     0.04600
H743        H  0.53229411  0.74014350  0.82288999     0.09700
H744        H  0.53078858  0.73128037  0.86054583     0.08500
N745        N  0.68320249  0.73341589  0.67954064    -0.25800
N746        N  0.69335780  0.72800670  0.67629958    -0.33700
C747        C  0.69812537  0.73390874  0.66679459     0.02500
C748        C  0.69057846  0.74342480  0.66399013     0.08500
C749        C  0.68122968  0.74289740  0.67219631    -0.04600
H750        H  0.70653703  0.73155730  0.66241308     0.09200
H751        H  0.67367811  0.74905840  0.67293930     0.10400
Cu752      Cu  0.70051258  0.71316553  0.68521266     0.44200
Cu753      Cu  0.67277219  0.72818460  0.69416661     0.42000
Cu754      Cu  0.68402049  0.70308488  0.71164592     0.43900
N755        N  0.70570912  0.69863159  0.69582895    -0.33200
N756        N  0.69966670  0.69495846  0.70546948    -0.27500
C757        C  0.70536381  0.68539228  0.71034551    -0.03600
C758        C  0.71541562  0.68297838  0.70341105     0.08600
C759        C  0.71542618  0.69149481  0.69430565     0.02400
H760        H  0.70241161  0.68060410  0.71834450     0.10100
H761        H  0.72199489  0.69246841  0.68713343     0.09200
N762        N  0.66876027  0.71283581  0.71623852    -0.34700
N763        N  0.66458974  0.72202511  0.70982676    -0.26900
C764        C  0.65483982  0.72665856  0.71541619    -0.02100
C765        C  0.65285320  0.72002654  0.72578589     0.06500
C766        C  0.66178922  0.71135457  0.72607348     0.04600
H767        H  0.64974211  0.73438952  0.71226904     0.09700
H768        H  0.66325723  0.70460319  0.73299888     0.08500
N769        N  0.88967834  0.72607633  0.17242326    -0.25800
N770        N  0.88058333  0.72076245  0.16678801    -0.33700
C771        C  0.87146911  0.71908889  0.17462568     0.02500
C772        C  0.87501371  0.72357532  0.18568579     0.08500
C773        C  0.88658028  0.72795128  0.18404698    -0.04600
H774        H  0.86292901  0.71487670  0.17242483     0.09200
H775        H  0.89232780  0.73211902  0.19076807     0.10400
Cu776      Cu  0.88093818  0.71589313  0.14876092     0.44200
Cu777      Cu  0.90580180  0.73027513  0.16384813     0.42000
Cu778      Cu  0.90805351  0.72160470  0.13184517     0.43900
N779        N  0.88295606  0.71133821  0.13076046    -0.33200
N780        N  0.89291446  0.71333945  0.12447507    -0.27500
C781        C  0.89142992  0.70894155  0.11321914    -0.03600
C782        C  0.87998966  0.70401242  0.11248710     0.08600
C783        C  0.87486978  0.70563989  0.12372004     0.02400
H784        H  0.89824139  0.70910577  0.10621200     0.10100
H785        H  0.86603808  0.70267045  0.12666253     0.09200
N786        N  0.92161717  0.73024607  0.14150873    -0.34700
N787        N  0.92079332  0.73338459  0.15303268    -0.26900
C788        C  0.93104285  0.73900795  0.15635213    -0.02100
C789        C  0.93859832  0.73940025  0.14645853     0.06500
C790        C  0.93241490  0.73379512  0.13720883     0.04600
H791        H  0.93278546  0.74263815  0.16526326     0.09700
H792        H  0.93545667  0.73250034  0.12800662     0.08500
N793        N  0.65962706  0.60200485  0.27456426    -0.25800
N794        N  0.65338537  0.61142032  0.27848147    -0.33700
C795        C  0.66075237  0.62103271  0.27933185     0.02500
C796        C  0.67213197  0.61747860  0.27577668     0.08500
C797        C  0.67117828  0.60539116  0.27281346    -0.04600
H798        H  0.65805468  0.62987358  0.28252951     0.09200
H799        H  0.67834211  0.59945682  0.26980904     0.10400
Cu800      Cu  0.63534975  0.61076357  0.28325012     0.44200
Cu801      Cu  0.65211282  0.58497077  0.27226011     0.42000
Cu802      Cu  0.62060567  0.58192422  0.28180285     0.43900
N803        N  0.61782221  0.60794808  0.28902508    -0.33200
N804        N  0.61237349  0.59731921  0.28863133    -0.27500
C805        C  0.60131965  0.59836448  0.29359572    -0.03600
C806        C  0.59983167  0.61021803  0.29721940     0.08600
C807        C  0.61042108  0.61604707  0.29423620     0.02400
H808        H  0.59498419  0.59100224  0.29471171     0.10100
H809        H  0.61271488  0.62539244  0.29599082     0.09200
N810        N  0.63080055  0.56801752  0.27445008    -0.34700
N811        N  0.64218916  0.56910128  0.27096585    -0.26900
C812        C  0.64594468  0.55847994  0.26637343    -0.02100
C813        C  0.63647102  0.55041228  0.26704458     0.06500
C814        C  0.62701911  0.55668940  0.27217305     0.04600
H815        H  0.65484171  0.55682849  0.26268911     0.09700
H816        H  0.61801406  0.55335076  0.27396749     0.08500
N817        N  0.76213161  0.83496699  0.39413135    -0.25800
N818        N  0.76705545  0.84087465  0.38498242    -0.33700
C819        C  0.76848249  0.83325204  0.37562783     0.02500
C820        C  0.76422204  0.82207024  0.37909733     0.08500
C821        C  0.76027071  0.82340490  0.39084482    -0.04600
H822        H  0.77253482  0.83563191  0.36705399     0.09200
H823        H  0.75655433  0.81647049  0.39665296     0.10400
Cu824      Cu  0.77217951  0.85882450  0.38583381     0.44200
Cu825      Cu  0.75877249  0.84283056  0.41078621     0.42000
Cu826      Cu  0.76867757  0.87411427  0.41446884     0.43900
N827        N  0.77758854  0.87645491  0.38885323    -0.33200
N828        N  0.77646265  0.88210696  0.39933002    -0.27500
C829        C  0.78141688  0.89319535  0.39837240    -0.03600
C830        C  0.78578267  0.89448459  0.38674025     0.08600
C831        C  0.78325067  0.88374694  0.38096387     0.02400
H832        H  0.78204702  0.89967978  0.40566495     0.10100
H833        H  0.78564190  0.88126686  0.37181307     0.09200
N834        N  0.76037169  0.86399645  0.42797250    -0.34700
N835        N  0.75675868  0.85266900  0.42659841    -0.26900
C836        C  0.75154713  0.84887529  0.43690908    -0.02100
C837        C  0.75192019  0.85825621  0.44510696     0.06500
C838        C  0.75754345  0.86770027  0.43921111     0.04600
H839        H  0.74766260  0.84000210  0.43826207     0.09700
H840        H  0.75931778  0.87664297  0.44275131     0.08500
N841        N  0.75743571  0.69679951  0.29136817    -0.25800
N842        N  0.76308038  0.69282461  0.28160713    -0.33700
C843        C  0.75685593  0.68348608  0.27693882     0.02500
C844        C  0.74687632  0.68154668  0.28413121     0.08500
C845        C  0.74746286  0.69009818  0.29318121    -0.04600
H846        H  0.75937847  0.67855812  0.26887941     0.09200
H847        H  0.74108833  0.69143705  0.30046890     0.10400
Cu848      Cu  0.77885968  0.70034288  0.27492992     0.44200
Cu849      Cu  0.76331782  0.71136374  0.30153706     0.42000
Cu850      Cu  0.79047742  0.72632753  0.29078453     0.43900
N851        N  0.79443453  0.70939903  0.26987332    -0.33200
N852        N  0.79870916  0.71892265  0.27569970    -0.27500
C853        C  0.80870817  0.72287887  0.27003910    -0.03600
C854        C  0.81077122  0.71545935  0.26023623     0.08600
C855        C  0.80159461  0.70702754  0.26034191     0.02400
H856        H  0.81393837  0.73068453  0.27274833     0.10100
H857        H  0.80010045  0.69983742  0.25388319     0.09200
N858        N  0.78039065  0.73222482  0.30540041    -0.34700
N859        N  0.77054048  0.72674026  0.30937321    -0.26900
C860        C  0.76595544  0.73307400  0.31868221    -0.02100
C861        C  0.77329578  0.74295479  0.32059332     0.06500
C862        C  0.78233638  0.74219977  0.31206395     0.04600
H863        H  0.75775894  0.73079119  0.32348836     0.09700
H864        H  0.78964014  0.74853508  0.31062987     0.08500
N865        N  0.70163822  0.18333910  0.89760196    -0.25800
N866        N  0.69668467  0.17780089  0.88823332    -0.33700
C867        C  0.69540558  0.18573525  0.87912059     0.02500
C868        C  0.69976559  0.19676094  0.88293541     0.08500
C869        C  0.70365411  0.19499415  0.89467291    -0.04600
H870        H  0.69152824  0.18362690  0.87039539     0.09200
H871        H  0.70758860  0.20165628  0.90065127     0.10400
Cu872      Cu  0.69161557  0.15979590  0.88818872     0.44200
Cu873      Cu  0.70519118  0.17467853  0.91392011     0.42000
Cu874      Cu  0.69640164  0.14293304  0.91566328     0.43900
N875        N  0.68657859  0.14190649  0.89030877    -0.33200
N876        N  0.68829956  0.13568899  0.90037582    -0.27500
C877        C  0.68359315  0.12455107  0.89900480    -0.03600
C878        C  0.67873775  0.12380269  0.88753770     0.08600
C879        C  0.68073793  0.13491831  0.88226355     0.02400
H880        H  0.68347473  0.11764482  0.90592998     0.10100
H881        H  0.67791605  0.13782468  0.87336158     0.09200
N882        N  0.70434849  0.15238619  0.92978809    -0.34700
N883        N  0.70754188  0.16390481  0.92916435    -0.26900
C884        C  0.71251658  0.16719685  0.93976724    -0.02100
C885        C  0.71241575  0.15729308  0.94735620     0.06500
C886        C  0.70720316  0.14805725  0.94079778     0.04600
H887        H  0.71603847  0.17610279  0.94174558     0.09700
H888        H  0.70569247  0.13885246  0.94374120     0.08500
N889        N  0.57828488  0.29416881  0.67171265    -0.25800
N890        N  0.58670797  0.30080953  0.66644280    -0.33700
C891        C  0.59523921  0.30363308  0.67460984     0.02500
C892        C  0.59199798  0.29852766  0.68549768     0.08500
C893        C  0.58124371  0.29257246  0.68340876    -0.04600
H894        H  0.60326343  0.30887669  0.67270387     0.09200
H895        H  0.57602215  0.28737988  0.68983946     0.10400
Cu896      Cu  0.58647562  0.30547299  0.64834824     0.44200
Cu897      Cu  0.56328694  0.28756208  0.66261819     0.42000
Cu898      Cu  0.56130567  0.29497803  0.63051817     0.43900
N899        N  0.58469960  0.30880950  0.63004793    -0.33200
N900        N  0.57550941  0.30497719  0.62344099    -0.27500
C901        C  0.57701644  0.30879389  0.61198005    -0.03600
C902        C  0.58765675  0.31528188  0.61145451     0.08600
C903        C  0.59229799  0.31514761  0.62300859     0.02400
H904        H  0.57077298  0.30708920  0.60465337     0.10100
H905        H  0.60050760  0.31944253  0.62612027     0.09200
N906        N  0.54828691  0.28525509  0.63989855    -0.34700
N907        N  0.54903121  0.28253335  0.65152863    -0.26900
C908        C  0.53913176  0.27627245  0.65477742    -0.02100
C909        C  0.53188137  0.27502279  0.64471922     0.06500
C910        C  0.53788778  0.28079974  0.63544900     0.04600
H911        H  0.53733990  0.27294829  0.66379878     0.09700
H912        H  0.53492337  0.28174843  0.62617788     0.08500
N913        N  0.80623386  0.41553890  0.77473053    -0.25800
N914        N  0.81189295  0.40588095  0.77891878    -0.33700
C915        C  0.80388639  0.39686371  0.78034693     0.02500
C916        C  0.79269244  0.40107444  0.77688502     0.08500
C917        C  0.79443194  0.41292616  0.77336998    -0.04600
H918        H  0.80604162  0.38797335  0.78381534     0.09200
H919        H  0.78764745  0.41921663  0.77020733     0.10400
Cu920      Cu  0.83009579  0.40558970  0.78308695     0.44200
Cu921      Cu  0.81497521  0.43179372  0.77148220     0.42000
Cu922      Cu  0.84688851  0.43347491  0.77987802     0.43900
N923        N  0.84797037  0.40755091  0.78813760    -0.33200
N924        N  0.85413173  0.41774982  0.78714230    -0.27500
C925        C  0.86518859  0.41615031  0.79195777    -0.03600
C926        C  0.86593462  0.40439389  0.79609385     0.08600
C927        C  0.85490815  0.39920072  0.79358301     0.02400
H928        H  0.87200447  0.42311767  0.79270868     0.10100
H929        H  0.85197644  0.39016437  0.79591050     0.09200
N930        N  0.83726889  0.44762300  0.77213952    -0.34700
N931        N  0.82572355  0.44696110  0.76909302    -0.26900
C932        C  0.82231995  0.45751716  0.76411573    -0.02100
C933        C  0.83217162  0.46513088  0.76405538     0.06500
C934        C  0.84150701  0.45864036  0.76917352     0.04600
H935        H  0.81337403  0.45943422  0.76068354     0.09700
H936        H  0.85071354  0.46162276  0.77051783     0.08500
N937        N  0.70192608  0.32598143  0.78419569    -0.25800
N938        N  0.70801829  0.32138456  0.79340105    -0.33700
C939        C  0.71789056  0.32820800  0.79538061     0.02500
C940        C  0.71792342  0.33748157  0.78702539     0.08500
C941        C  0.70773227  0.33582854  0.78006856    -0.04600
H942        H  0.72458513  0.32646052  0.80228760     0.09200
H943        H  0.70480999  0.34127102  0.77248560     0.10400
Cu944      Cu  0.70273592  0.30586672  0.80258624     0.44200
Cu945      Cu  0.68623072  0.31851216  0.77735125     0.42000
Cu946      Cu  0.67567732  0.29096693  0.79132919     0.43900
N947        N  0.69567064  0.29006611  0.80990052    -0.33200
N948        N  0.68583408  0.28465056  0.80578742    -0.27500
C949        C  0.68383417  0.27457239  0.81230460    -0.03600
C950        C  0.69282672  0.27365106  0.82088886     0.08600
C951        C  0.70018428  0.28357039  0.81914993     0.02400
H952        H  0.67645774  0.26833688  0.81080905     0.10100
H953        H  0.70827892  0.28584381  0.82413095     0.09200
N954        N  0.66731375  0.29898187  0.77657141    -0.34700
N955        N  0.67118488  0.30910193  0.77151318    -0.26900
C956        C  0.66406238  0.31181776  0.76205082    -0.02100
C957        C  0.65532795  0.30298524  0.76115866     0.06500
C958        C  0.65760378  0.29497294  0.77044696     0.04600
H959        H  0.66527441  0.31954686  0.75617997     0.09700
H960        H  0.65268866  0.28677722  0.77251922     0.08500
N961        N  0.63526313  0.43233164  0.51698494    -0.25800
N962        N  0.62623100  0.42656053  0.52225841    -0.33700
C963        C  0.61707081  0.43432242  0.52406034     0.02500
C964        C  0.62053283  0.44546155  0.51969097     0.08500
C965        C  0.63209253  0.44395632  0.51527684    -0.04600
H966        H  0.60869400  0.43209974  0.52857502     0.09200
H967        H  0.63790424  0.45083909  0.51147677     0.10400
Cu968      Cu  0.62712121  0.40872021  0.52775046     0.44200
Cu969      Cu  0.65171823  0.42422124  0.51333802     0.42000
Cu970      Cu  0.65529157  0.39297256  0.52380247     0.43900
N971        N  0.63019773  0.39137305  0.53398518    -0.33200
N972        N  0.64053450  0.38553878  0.53262824    -0.27500
C973        C  0.63983038  0.37483788  0.53839482    -0.03600
C974        C  0.62850791  0.37399528  0.54355786     0.08600
C975        C  0.62263956  0.38458203  0.54062897     0.02400
H976        H  0.64712746  0.36836919  0.53908777     0.10100
H977        H  0.61369842  0.38733946  0.54344570     0.09200
N978        N  0.66874609  0.40294523  0.51539882    -0.34700
N979        N  0.66744593  0.41423123  0.51162166    -0.26900
C980        C  0.67793583  0.41804953  0.50683384    -0.02100
C981        C  0.68614424  0.40872370  0.50765989     0.06500
C982        C  0.68010228  0.39929210  0.51310815     0.04600
H983        H  0.67946748  0.42697084  0.50312317     0.09700
H984        H  0.68368878  0.39046636  0.51533147     0.08500
N985        N  0.51347874  0.66218854  0.41834686    -0.25800
N986        N  0.51865311  0.65301577  0.41268697    -0.33700
C987        C  0.52059746  0.64401305  0.42060179     0.02500
C988        C  0.51643686  0.64770974  0.43173242     0.08500
C989        C  0.51197394  0.65924641  0.43006306    -0.04600
H990        H  0.52484040  0.63547708  0.41841808     0.09200
H991        H  0.50806168  0.66510864  0.43684032     0.10400
Cu992      Cu  0.52323103  0.65312806  0.39459124     0.44200
Cu993      Cu  0.50912458  0.67833161  0.40982328     0.42000
Cu994      Cu  0.51819978  0.68066246  0.37811646     0.43900
N995        N  0.52784079  0.65529111  0.37663188    -0.33200
N996        N  0.52613829  0.66543370  0.37053700    -0.27500
C997        C  0.53069479  0.66411262  0.35932849    -0.03600
C998        C  0.53541658  0.65258934  0.35842153     0.08600
C999        C  0.53349649  0.64724348  0.36950711     0.02400
H1000       H  0.53085604  0.67111788  0.35250403     0.10100
H1001       H  0.53633820  0.63831835  0.37233197     0.09200
N1002       N  0.50962866  0.69436459  0.38767045    -0.34700
N1003       N  0.50625222  0.69348294  0.39911801    -0.26900
C1004       C  0.50078755  0.70383020  0.40243816    -0.02100
C1005       C  0.50075876  0.71152244  0.39262483     0.06500
C1006       C  0.50641113  0.70530287  0.38341948     0.04600
H1007       H  0.49709088  0.70558490  0.41131700     0.09700
H1008       H  0.50800868  0.70843699  0.37429618     0.08500
N1009       N  0.41072485  0.53880486  0.64724842    -0.25800
N1010       N  0.40546276  0.54543705  0.63880890    -0.33700
C1011       C  0.41326937  0.54723798  0.62969311     0.02500
C1012       C  0.42390926  0.54146343  0.63256272     0.08500
C1013       C  0.42206750  0.53620087  0.64372250    -0.04600
H1014       H  0.41134386  0.55242721  0.62162750     0.09200
H1015       H  0.42847131  0.53094898  0.64892055     0.10400
Cu1016     Cu  0.38801292  0.55191308  0.64002835     0.44200
Cu1017     Cu  0.40215782  0.53383612  0.66314535     0.42000
Cu1018     Cu  0.37102060  0.54435501  0.66672096     0.43900
N1019       N  0.37047160  0.55756083  0.64293042    -0.33200
N1020       N  0.36413265  0.55480146  0.65267954    -0.27500
C1021       C  0.35312380  0.55991539  0.65177759    -0.03600
C1022       C  0.35262193  0.56613448  0.64095535     0.08600
C1023       C  0.36372196  0.56448219  0.63557572     0.02400
H1024       H  0.34607278  0.55920064  0.65850720     0.10100
H1025       H  0.36670886  0.56806523  0.62698171     0.09200
N1026       N  0.38029621  0.53416413  0.67952312    -0.34700
N1027       N  0.39156692  0.53038236  0.67820678    -0.26900
C1028       C  0.39488158  0.52421484  0.68815079    -0.02100
C1029       C  0.38524915  0.52413345  0.69604407     0.06500
C1030       C  0.37615284  0.53049058  0.69035764     0.04600
H1031       H  0.40366790  0.52016747  0.68953449     0.09700
H1032       H  0.36722200  0.53237846  0.69384122     0.08500
N1033       N  0.50937789  0.55567162  0.55346569    -0.25800
N1034       N  0.51484384  0.54574755  0.55728920    -0.33700
C1035       C  0.50868993  0.54118640  0.56672389     0.02500
C1036       C  0.49893831  0.54862375  0.56888491     0.08500
C1037       C  0.49959006  0.55770522  0.56036962    -0.04600
H1038       H  0.51110251  0.53303472  0.57156390     0.09200
H1039       H  0.49338468  0.56517204  0.55919917     0.10400
Cu1040     Cu  0.53028226  0.53876321  0.54942419     0.44200
Cu1041     Cu  0.51532671  0.56582548  0.53890180     0.42000
Cu1042     Cu  0.54248230  0.55519964  0.52393674     0.43900
N1043       N  0.54554519  0.53347083  0.54003972    -0.33200
N1044       N  0.55004605  0.53948317  0.53073717    -0.27500
C1045       C  0.55973632  0.53350837  0.52648154    -0.03600
C1046       C  0.56134870  0.52331766  0.53348100     0.08600
C1047       C  0.55223770  0.52351336  0.54196509     0.02400
H1048       H  0.56503583  0.53626227  0.51874095     0.10100
H1049       H  0.55044962  0.51682501  0.54887367     0.09200
N1050       N  0.53280710  0.57027052  0.51848996    -0.34700
N1051       N  0.52288290  0.57413234  0.52391860    -0.26900
C1052       C  0.51858416  0.58379703  0.51791697    -0.02100
C1053       C  0.52619865  0.58607024  0.50832041     0.06500
C1054       C  0.53509757  0.57737168  0.50889329     0.04600
H1055       H  0.51041622  0.58863285  0.52024221     0.09700
H1056       H  0.54253627  0.57612574  0.50268029     0.08500
N1057       N  0.15884600  0.91472363  0.71239755    -0.25800
N1058       N  0.15306005  0.90517711  0.70812140    -0.33700
C1059       C  0.16102542  0.89625523  0.70606605     0.02500
C1060       C  0.17231972  0.90040422  0.70920467     0.08500
C1061       C  0.17069975  0.91211862  0.71318628    -0.04600
H1062       H  0.15875746  0.88746531  0.70242354     0.09200
H1063       H  0.17758747  0.91831490  0.71630552     0.10400
Cu1064     Cu  0.13476124  0.90476703  0.70456995     0.44200
Cu1065     Cu  0.15027375  0.93088034  0.71648066     0.42000
Cu1066     Cu  0.11827258  0.93244633  0.70837790     0.43900
N1067       N  0.11689360  0.90676104  0.69962017    -0.33200
N1068       N  0.11081139  0.91697531  0.70084421    -0.27500
C1069       C  0.09978529  0.91560987  0.69590063    -0.03600
C1070       C  0.09897707  0.90398303  0.69142745     0.08600
C1071       C  0.10993986  0.89861904  0.69388725     0.02400
H1072       H  0.09305552  0.92267189  0.69524267     0.10100
H1073       H  0.11283854  0.88964705  0.69128647     0.09200
N1074       N  0.12794975  0.94662873  0.71592786    -0.34700
N1075       N  0.13951351  0.94603306  0.71891849    -0.26900
C1076       C  0.14296098  0.95673421  0.72354618    -0.02100
C1077       C  0.13311320  0.96436019  0.72341219     0.06500
C1078       C  0.12374406  0.95773350  0.71856770     0.04600
H1079       H  0.15195886  0.95878340  0.72675867     0.09700
H1080       H  0.11455840  0.96071983  0.71708746     0.08500
N1081       N  0.25819585  0.68336081  0.59250768    -0.25800
N1082       N  0.26180992  0.67712907  0.60204658    -0.33700
C1083       C  0.26262664  0.68457605  0.61160662     0.02500
C1084       C  0.25935846  0.69600666  0.60789041     0.08500
C1085       C  0.25661401  0.69498785  0.59575505    -0.04600
H1086       H  0.26589817  0.68195939  0.62044401     0.09200
H1087       H  0.25413518  0.70220691  0.58963840     0.10400
Cu1088     Cu  0.26701263  0.65920871  0.60134520     0.44200
Cu1089     Cu  0.25666461  0.67581095  0.57539514     0.42000
Cu1090     Cu  0.26688911  0.64457550  0.57212773     0.43900
N1091       N  0.27423909  0.64226295  0.59827299    -0.33200
N1092       N  0.27433797  0.63687315  0.58759902    -0.27500
C1093       C  0.28059123  0.62646251  0.58851419    -0.03600
C1094       C  0.28454228  0.62533816  0.60030954     0.08600
C1095       C  0.28040880  0.63547861  0.60624173     0.02400
H1096       H  0.28249020  0.62042309  0.58106194     0.10100
H1097       H  0.28215642  0.63799947  0.61552700     0.09200
N1098       N  0.25959223  0.65479966  0.55810684    -0.34700
N1099       N  0.25597821  0.66614799  0.55931676    -0.26900
C1100       C  0.25157902  0.67007405  0.54867999    -0.02100
C1101       C  0.25247134  0.66077041  0.54043158     0.06500
C1102       C  0.25756433  0.65121630  0.54664766     0.04600
H1103       H  0.24781421  0.67896988  0.54714687     0.09700
H1104       H  0.25948471  0.64227698  0.54317592     0.08500
N1105       N  0.38823733  0.79189059  0.81214922    -0.25800
N1106       N  0.37941557  0.79773594  0.81770668    -0.33700
C1107       C  0.37113533  0.80116885  0.80951815     0.02500
C1108       C  0.37494830  0.79729383  0.79831988     0.08500
C1109       C  0.38578812  0.79143500  0.80023596    -0.04600
H1110       H  0.36297033  0.80612691  0.81158513     0.09200
H1111       H  0.39147653  0.78718817  0.79351520     0.10400
Cu1112     Cu  0.37899972  0.80107586  0.83608599     0.44200
Cu1113     Cu  0.40324490  0.78507226  0.82107590     0.42000
Cu1114     Cu  0.40471550  0.79152530  0.85340340     0.43900
N1115       N  0.38086157  0.80441914  0.85437328    -0.33200
N1116       N  0.39036123  0.80101491  0.86076682    -0.27500
C1117       C  0.38913981  0.80509105  0.87216386    -0.03600
C1118       C  0.37834939  0.81129465  0.87288612     0.08600
C1119       C  0.37332467  0.81073474  0.86150168     0.02400
H1120       H  0.39573774  0.80387015  0.87927379     0.10100
H1121       H  0.36498733  0.81487594  0.85851928     0.09200
N1122       N  0.41796596  0.78232247  0.84390450    -0.34700
N1123       N  0.41743916  0.77992638  0.83219315    -0.26900
C1124       C  0.42754216  0.77401432  0.82890872    -0.02100
C1125       C  0.43467443  0.77265696  0.83904097     0.06500
C1126       C  0.42840554  0.77800927  0.84837587     0.04600
H1127       H  0.42957810  0.77106246  0.81981153     0.09700
H1128       H  0.43124657  0.77882696  0.85769719     0.08500
N1129       N  0.29805033  0.81403132  0.71142060    -0.25800
N1130       N  0.30176247  0.80369390  0.70669494    -0.33700
C1131       C  0.31177100  0.80003532  0.71253030     0.02500
C1132       C  0.31443374  0.80849855  0.72128232     0.08500
C1133       C  0.30559285  0.81723614  0.72039553    -0.04600
H1134       H  0.31649961  0.79165566  0.71078202     0.09200
H1135       H  0.30447195  0.82510670  0.72609138     0.10400
Cu1136     Cu  0.29261715  0.79457762  0.69314264     0.44200
Cu1137     Cu  0.28238880  0.82275355  0.70613060     0.42000
Cu1138     Cu  0.26477914  0.80791694  0.68267630     0.43900
N1139       N  0.28180167  0.78687716  0.67994734    -0.33200
N1140       N  0.27162845  0.79179578  0.67605905    -0.27500
C1141       C  0.26667220  0.78453376  0.66766101    -0.03600
C1142       C  0.27410686  0.77462705  0.66625249     0.08600
C1143       C  0.28359883  0.77634435  0.67413980     0.02400
H1144       H  0.25823890  0.78628729  0.66304273     0.10100
H1145       H  0.29118525  0.77036408  0.67563707     0.09200
N1146       N  0.25946181  0.82358402  0.69144608    -0.34700
N1147       N  0.26586809  0.82896718  0.69998959    -0.26900
C1148       C  0.25970930  0.83859817  0.70411321    -0.02100
C1149       C  0.24898113  0.83925755  0.69783639     0.06500
C1150       C  0.24905270  0.82965454  0.68989577     0.04600
H1151       H  0.26274538  0.84453324  0.71126732     0.09700
H1152       H  0.24200611  0.82713295  0.68360755     0.08500
N1153       N  0.45048820  0.16431543  0.06704096    -0.25800
N1154       N  0.44535720  0.15510959  0.07268293    -0.33700
C1155       C  0.44282616  0.14639392  0.06460170     0.02500
C1156       C  0.44655454  0.15033862  0.05338745     0.08500
C1157       C  0.45137102  0.16170291  0.05519074    -0.04600
H1158       H  0.43854429  0.13786620  0.06674225     0.09200
H1159       H  0.45518502  0.16764612  0.04842649     0.10400
Cu1160     Cu  0.44176528  0.15490202  0.09103232     0.44200
Cu1161     Cu  0.45585592  0.17999337  0.07579537     0.42000
Cu1162     Cu  0.44927554  0.18176192  0.10806128     0.43900
N1163       N  0.43805617  0.15697239  0.10924240    -0.33200
N1164       N  0.44066886  0.16681788  0.11550785    -0.27500
C1165       C  0.43651110  0.16548280  0.12687056    -0.03600
C1166       C  0.43109957  0.15426649  0.12770663     0.08600
C1167       C  0.43219856  0.14911295  0.11641928     0.02400
H1168       H  0.43713487  0.17227413  0.13387924     0.10100
H1169       H  0.42871666  0.14044402  0.11352502     0.09200
N1170       N  0.45778110  0.19538036  0.09830232    -0.34700
N1171       N  0.46016207  0.19469893  0.08659583    -0.26900
C1172       C  0.46560034  0.20497649  0.08304408    -0.02100
C1173       C  0.46667455  0.21242631  0.09297631     0.06500
C1174       C  0.46165128  0.20612963  0.10250239     0.04600
H1175       H  0.46848818  0.20688545  0.07390027     0.09700
H1176       H  0.46080823  0.20913320  0.11176854     0.08500
N1177       N  0.33203701  0.93274548  0.96277656    -0.25800
N1178       N  0.34115700  0.92716017  0.95744427    -0.33700
C1179       C  0.35018030  0.93509335  0.95564616     0.02500
C1180       C  0.34654925  0.94615912  0.96008136     0.08500
C1181       C  0.33502796  0.94441668  0.96453476    -0.04600
H1182       H  0.35868565  0.93297082  0.95132904     0.09200
H1183       H  0.32920337  0.95112666  0.96861316     0.10400
Cu1184     Cu  0.34082760  0.90911596  0.95253674     0.44200
Cu1185     Cu  0.31584515  0.92420747  0.96692643     0.42000
Cu1186     Cu  0.31324745  0.89252154  0.95820671     0.43900
N1187       N  0.33831608  0.89122006  0.94772692    -0.33200
N1188       N  0.32825028  0.88510835  0.94976263    -0.27500
C1189       C  0.32930798  0.87400424  0.94489474    -0.03600
C1190       C  0.34056982  0.87317249  0.93961475     0.08600
C1191       C  0.34604470  0.88419465  0.94152840     0.02400
H1192       H  0.32226148  0.86722925  0.94485328     0.10100
H1193       H  0.35481312  0.88705971  0.93830399     0.09200
N1194       N  0.29936960  0.90238813  0.96606231    -0.34700
N1195       N  0.30033844  0.91388411  0.96924886    -0.26900
C1196       C  0.28975555  0.91759948  0.97392820    -0.02100
C1197       C  0.28181057  0.90800067  0.97364222     0.06500
C1198       C  0.28813717  0.89849457  0.96862658     0.04600
H1199       H  0.28799227  0.92662221  0.97726859     0.09700
H1200       H  0.28485092  0.88943536  0.96695444     0.08500
N1201       N  0.55477303  0.03894511  0.83857814    -0.25800
N1202       N  0.56044589  0.04447452  0.84753010    -0.33700
C1203       C  0.55250638  0.04693963  0.85637719     0.02500
C1204       C  0.54134837  0.04274870  0.85280576     0.08500
C1205       C  0.54303019  0.03772794  0.84150600    -0.04600
H1206       H  0.55470009  0.05151632  0.86473692     0.09200
H1207       H  0.53625220  0.03358884  0.83580588     0.10400
Cu1208     Cu  0.57861468  0.04877166  0.84728232     0.44200
Cu1209     Cu  0.56334225  0.03367379  0.82275199     0.42000
Cu1210     Cu  0.59518113  0.04206764  0.82008467     0.43900
N1211       N  0.59660300  0.05317442  0.84488583    -0.33200
N1212       N  0.60271940  0.05084262  0.83488581    -0.27500
C1213       C  0.61399141  0.05526997  0.83604590    -0.03600
C1214       C  0.61492328  0.06056621  0.84731284     0.08600
C1215       C  0.60378055  0.05912382  0.85267492     0.02400
H1216       H  0.62088699  0.05485101  0.82913195     0.10100
H1217       H  0.60099646  0.06237310  0.86146640     0.09200
N1218       N  0.58550197  0.03301694  0.80676253    -0.34700
N1219       N  0.57399230  0.02992906  0.80777110    -0.26900
C1220       C  0.57055111  0.02409941  0.79766671    -0.02100
C1221       C  0.58035055  0.02351160  0.78999482     0.06500
C1222       C  0.58967488  0.02923035  0.79597774     0.04600
H1223       H  0.56159642  0.02053333  0.79606425     0.09700
H1224       H  0.59881993  0.03050014  0.79278216     0.08500
N1225       N  0.43123035  0.07435589  0.96545096    -0.25800
N1226       N  0.44081931  0.07870405  0.95979303    -0.33700
C1227       C  0.44469471  0.08865734  0.96560797     0.02500
C1228       C  0.43715259  0.09062409  0.97532846     0.08500
C1229       C  0.42874072  0.08143136  0.97502182    -0.04600
H1230       H  0.45253174  0.09391292  0.96306323     0.09200
H1231       H  0.42149794  0.07985328  0.98139010     0.10400
Cu1232     Cu  0.44846887  0.07068793  0.94471382     0.44200
Cu1233     Cu  0.42226982  0.05871974  0.96025818     0.42000
Cu1234     Cu  0.43433450  0.04299113  0.93429884     0.43900
N1235       N  0.45453196  0.06078806  0.93003472    -0.33200
N1236       N  0.44937030  0.05069313  0.92622907    -0.27500
C1237       C  0.45563544  0.04635614  0.91675990    -0.03600
C1238       C  0.46512697  0.05411505  0.91455327     0.08600
C1239       C  0.46421924  0.06315038  0.92309009     0.02400
H1240       H  0.45353306  0.03808424  0.91198357     0.10100
H1241       H  0.47023102  0.07076561  0.92430057     0.09200
N1242       N  0.41971919  0.03682588  0.94424817    -0.34700
N1243       N  0.41529125  0.04256965  0.95375450    -0.26900
C1244       C  0.40613433  0.03605391  0.95840430    -0.02100
C1245       C  0.40479353  0.02577348  0.95146614     0.06500
C1246       C  0.41350626  0.02650795  0.94258534     0.04600
H1247       H  0.40099455  0.03853095  0.96634247     0.09700
H1248       H  0.41533929  0.01995565  0.93556168     0.08500
N1249       N  0.94703369  0.35176820  0.92078816    -0.25800
N1250       N  0.94101255  0.36046518  0.91522564    -0.33700
C1251       C  0.93873304  0.36940755  0.92312492     0.02500
C1252       C  0.94354513  0.36612532  0.93413514     0.08500
C1253       C  0.94875888  0.35493278  0.93240280    -0.04600
H1254       H  0.93406587  0.37772487  0.92095514     0.09200
H1255       H  0.95357218  0.34956092  0.93900689     0.10400
Cu1256     Cu  0.93643308  0.35991191  0.89711966     0.44200
Cu1257     Cu  0.95279692  0.33622623  0.91214553     0.42000
Cu1258     Cu  0.94596380  0.33387002  0.87990654     0.43900
N1259       N  0.93271837  0.35759599  0.87895428    -0.33200
N1260       N  0.93619017  0.34810649  0.87256132    -0.27500
C1261       C  0.93210520  0.34932017  0.86115484    -0.03600
C1262       C  0.92582329  0.36008429  0.86044854     0.08600
C1263       C  0.92635578  0.36509520  0.87183351     0.02400
H1264       H  0.93347953  0.34279727  0.85400047     0.10100
H1265       H  0.92230398  0.37349264  0.87478392     0.09200
N1266       N  0.95500573  0.32071905  0.88978267    -0.34700
N1267       N  0.95743169  0.32159490  0.90146717    -0.26900
C1268       C  0.96308465  0.31148106  0.90513095    -0.02100
C1269       C  0.96423627  0.30394107  0.89529161     0.06500
C1270       C  0.95906210  0.31000171  0.88570543     0.04600
H1271       H  0.96602769  0.30973346  0.91429141     0.09700
H1272       H  0.95819554  0.30683861  0.87649350     0.08500
N1273       N  0.05706425  0.48411165  0.14672195    -0.25800
N1274       N  0.06268334  0.47801311  0.13811834    -0.33700
C1275       C  0.05504129  0.47613870  0.12888356     0.02500
C1276       C  0.04412102  0.48130589  0.13183479     0.08500
C1277       C  0.04563096  0.48628832  0.14317909    -0.04600
H1278       H  0.05721331  0.47114408  0.12076204     0.09200
H1279       H  0.03889904  0.49090706  0.14855492     0.10400
Cu1280     Cu  0.08019564  0.47182867  0.13951416     0.44200
Cu1281     Cu  0.06523338  0.48852772  0.16301160     0.42000
Cu1282     Cu  0.09608801  0.47724506  0.16734290     0.43900
N1283       N  0.09741555  0.46556243  0.14285445    -0.33200
N1284       N  0.10333584  0.46744927  0.15306211    -0.27500
C1285       C  0.11412566  0.46185537  0.15243641    -0.03600
C1286       C  0.11491606  0.45626141  0.14129991     0.08600
C1287       C  0.10421731  0.45874878  0.13546609     0.02400
H1288       H  0.12077730  0.46173152  0.15959957     0.10100
H1289       H  0.10147404  0.45568348  0.12659348     0.09200
N1290       N  0.08651956  0.48712011  0.18012960    -0.34700
N1291       N  0.07538938  0.49121197  0.17855103    -0.26900
C1292       C  0.07185066  0.49705334  0.18861478    -0.02100
C1293       C  0.08119296  0.49659595  0.19684359     0.06500
C1294       C  0.09034123  0.49025476  0.19124206     0.04600
H1295       H  0.06309360  0.50120590  0.18986521     0.09700
H1296       H  0.09908069  0.48798394  0.19497943     0.08500
N1297       N  0.82733858  0.58161526  0.02617260    -0.25800
N1298       N  0.83652627  0.58673919  0.03183996    -0.33700
C1299       C  0.84535181  0.57853084  0.03330778     0.02500
C1300       C  0.84150198  0.56778044  0.02833181     0.08500
C1301       C  0.83007529  0.56998018  0.02386657    -0.04600
H1302       H  0.85394663  0.58029692  0.03761155     0.09200
H1303       H  0.82421932  0.56366315  0.01924258     0.10400
Cu1304     Cu  0.83676888  0.60465204  0.03725104     0.44200
Cu1305     Cu  0.81163776  0.59081695  0.02181860     0.42000
Cu1306     Cu  0.81020759  0.62251389  0.03071493     0.43900
N1307       N  0.83496270  0.62265472  0.04204939    -0.33200
N1308       N  0.82525373  0.62922013  0.03969931    -0.27500
C1309       C  0.82681539  0.64038432  0.04429031    -0.03600
C1310       C  0.83802944  0.64078757  0.04972615     0.08600
C1311       C  0.84295969  0.62944438  0.04818210     0.02400
H1312       H  0.82020368  0.64757428  0.04386926     0.10100
H1313       H  0.85161171  0.62627854  0.05144491     0.09200
N1314       N  0.79638953  0.61347995  0.02178421    -0.34700
N1315       N  0.79695709  0.60196661  0.01856845    -0.26900
C1316       C  0.78661060  0.59887570  0.01300805    -0.02100
C1317       C  0.77923229  0.60890705  0.01273183     0.06500
C1318       C  0.78563937  0.61801677  0.01834750     0.04600
H1319       H  0.78462905  0.58998408  0.00944778     0.09700
H1320       H  0.78273277  0.62723665  0.01983570     0.08500
N1321       N  0.95483520  0.47319635  0.05517279    -0.25800
N1322       N  0.95997029  0.46297195  0.05169114    -0.33700
C1323       C  0.96975541  0.46089382  0.05858850     0.02500
C1324       C  0.97076012  0.47025351  0.06675379     0.08500
C1325       C  0.96121423  0.47790465  0.06438801    -0.04600
H1326       H  0.97563478  0.45312681  0.05774400     0.09200
H1327       H  0.95901332  0.48622260  0.06903744     0.10400
Cu1328     Cu  0.95340383  0.45221023  0.03786159     0.44200
Cu1329     Cu  0.93928414  0.48016153  0.04741573     0.42000
Cu1330     Cu  0.92545817  0.46191601  0.02401573     0.43900
N1331       N  0.94509213  0.44307505  0.02380409    -0.33200
N1332       N  0.93481597  0.44658707  0.01881676    -0.27500
C1333       C  0.93201635  0.43901225  0.00973759    -0.03600
C1334       C  0.94095767  0.43036982  0.00903732     0.08600
C1335       C  0.94912329  0.43316451  0.01802423     0.02400
H1336       H  0.92421053  0.43991329  0.00392401     0.10100
H1337       H  0.95747664  0.42851817  0.02006606     0.09200
N1338       N  0.91842241  0.47816602  0.03002079    -0.34700
N1339       N  0.92351487  0.48488761  0.03849769    -0.26900
C1340       C  0.91680492  0.49488129  0.04019729    -0.02100
C1341       C  0.90708258  0.49434702  0.03242356     0.06500
C1342       C  0.90834038  0.48369208  0.02609092     0.04600
H1343       H  0.91886247  0.50197369  0.04660790     0.09700
H1344       H  0.90241466  0.48021171  0.01913701     0.08500
N1345       N  0.30673395  0.10150077  0.20868116    -0.25800
N1346       N  0.31241882  0.11108292  0.20433791    -0.33700
C1347       C  0.30442218  0.12007621  0.20271345     0.02500
C1348       C  0.29322564  0.11593174  0.20621349     0.08500
C1349       C  0.29493695  0.10415541  0.20995511    -0.04600
H1350       H  0.30661861  0.12895217  0.19923784     0.09200
H1351       H  0.28815528  0.09797665  0.21333112     0.10400
Cu1352     Cu  0.33071572  0.11160647  0.20062020     0.44200
Cu1353     Cu  0.31531143  0.08527726  0.21250710     0.42000
Cu1354     Cu  0.34735504  0.08406297  0.20505101     0.43900
N1355       N  0.34888929  0.10986581  0.19666776    -0.33200
N1356       N  0.35501236  0.09971337  0.19818191    -0.27500
C1357       C  0.36638112  0.10131974  0.19419290    -0.03600
C1358       C  0.36738631  0.11304295  0.19004203     0.08600
C1359       C  0.35617604  0.11821587  0.19168831     0.02400
H1360       H  0.37326482  0.09437836  0.19402209     0.10100
H1361       H  0.35339842  0.12723674  0.18911801     0.09200
N1362       N  0.33774069  0.06973351  0.21232893    -0.34700
N1363       N  0.32612107  0.07017906  0.21510278    -0.26900
C1364       C  0.32279172  0.05950927  0.21989716    -0.02100
C1365       C  0.33278999  0.05207298  0.22010357     0.06500
C1366       C  0.34211009  0.05877397  0.21527531     0.04600
H1367       H  0.31381309  0.05740171  0.22312045     0.09700
H1368       H  0.35140483  0.05598549  0.21414295     0.08500
N1369       N  0.20264221  0.33290078  0.09084907    -0.25800
N1370       N  0.19757813  0.33837304  0.10019519    -0.33700
C1371       C  0.19644251  0.33044312  0.10932694     0.02500
C1372       C  0.20101589  0.31950207  0.10552804     0.08500
C1373       C  0.20487480  0.32130003  0.09379965    -0.04600
H1374       H  0.19241984  0.33246596  0.11800453     0.09200
H1375       H  0.20884233  0.31467099  0.08780609     0.10400
Cu1376     Cu  0.19184891  0.35616059  0.10003860     0.44200
Cu1377     Cu  0.20578521  0.34143707  0.07442656     0.42000
Cu1378     Cu  0.19455492  0.37230117  0.07181290     0.43900
N1379       N  0.18558331  0.37358441  0.09749757    -0.33200
N1380       N  0.18644344  0.37950825  0.08714575    -0.27500
C1381       C  0.18101401  0.39033797  0.08833081    -0.03600
C1382       C  0.17659276  0.39118272  0.09996867     0.08600
C1383       C  0.17960503  0.38045318  0.10554128     0.02400
H1384       H  0.18015219  0.39696774  0.08119140     0.10100
H1385       H  0.17738450  0.37770849  0.11466149     0.09200
N1386       N  0.20314737  0.36305682  0.05789074    -0.34700
N1387       N  0.20728414  0.35186945  0.05888049    -0.26900
C1388       C  0.21243794  0.34860796  0.04835767    -0.02100
C1389       C  0.21146825  0.35818036  0.04041833     0.06500
C1390       C  0.20555875  0.36719710  0.04669989     0.04600
H1391       H  0.21661897  0.33993269  0.04665143     0.09700
H1392       H  0.20324756  0.37612261  0.04343232     0.08500
N1393       N  0.08082401  0.23322581  0.31809329    -0.25800
N1394       N  0.08929223  0.22701403  0.32379862    -0.33700
C1395       C  0.09815335  0.22421881  0.31599048     0.02500
C1396       C  0.09510384  0.22890714  0.30487159     0.08500
C1397       C  0.08409703  0.23456676  0.30644559    -0.04600
H1398       H  0.10615421  0.21907136  0.31824214     0.09200
H1399       H  0.07881343  0.23920287  0.29964832     0.10400
Cu1400     Cu  0.08832491  0.22218247  0.34177637     0.44200
Cu1401     Cu  0.06506433  0.23908064  0.32645780     0.42000
Cu1402     Cu  0.06090610  0.22937580  0.35774698     0.43900
N1403       N  0.08507382  0.21710562  0.35941293    -0.33200
N1404       N  0.07499010  0.21959962  0.36531110    -0.27500
C1405       C  0.07544209  0.21437126  0.37629133    -0.03600
C1406       C  0.08633764  0.20838424  0.37724003     0.08600
C1407       C  0.09221953  0.21025664  0.36643632     0.02400
H1408       H  0.06825316  0.21463154  0.38290636     0.10100
H1409       H  0.10086394  0.20660329  0.36371252     0.09200
N1410       N  0.04818582  0.23908216  0.34797214    -0.34700
N1411       N  0.04971831  0.24270222  0.33666800    -0.26900
C1412       C  0.03969315  0.24852424  0.33298867    -0.02100
C1413       C  0.03153839  0.24853313  0.34242171     0.06500
C1414       C  0.03715207  0.24248817  0.35176694     0.04600
H1415       H  0.03838246  0.25227997  0.32405392     0.09700
H1416       H  0.03345614  0.24055725  0.36061167     0.08500
N1417       N  0.17033019  0.22088972  0.21422400    -0.25800
N1418       N  0.17394139  0.21089624  0.21971291    -0.33700
C1419       C  0.16677360  0.20883476  0.22930998     0.02500
C1420       C  0.15829263  0.21795592  0.22979894     0.08500
C1421       C  0.16076323  0.22545475  0.22016046    -0.04600
H1422       H  0.16772719  0.20130896  0.23548643     0.09200
H1423       H  0.15605790  0.23366803  0.21769522     0.10400
Cu1424     Cu  0.18844727  0.20057002  0.21392488     0.44200
Cu1425     Cu  0.17871617  0.22806233  0.19913046     0.42000
Cu1426     Cu  0.20442300  0.21178970  0.18752163     0.43900
N1427       N  0.20299033  0.19181942  0.20602318    -0.33200
N1428       N  0.20874141  0.19590723  0.19636900    -0.27500
C1429       C  0.21781326  0.18831299  0.19363846    -0.03600
C1430       C  0.21771718  0.17905438  0.20196516     0.08600
C1431       C  0.20826945  0.18150103  0.20970837     0.02400
H1432       H  0.22412846  0.18958321  0.18628632     0.10100
H1433       H  0.20555210  0.17631468  0.21754069     0.09200
N1434       N  0.19831491  0.22789322  0.18027692    -0.34700
N1435       N  0.18883738  0.23381523  0.18450241    -0.26900
C1436       C  0.18709649  0.24381370  0.17781772    -0.02100
C1437       C  0.19590504  0.24413448  0.16902033     0.06500
C1438       C  0.20288406  0.23396261  0.17078563     0.04600
H1439       H  0.17993523  0.25031171  0.17924427     0.09700
H1440       H  0.21063702  0.23113210  0.16555284     0.08500
N1441       N  0.13830947  0.08207858  0.45865541    -0.25800
N1442       N  0.12918889  0.08744473  0.45311619    -0.33700
C1443       C  0.12003205  0.07957135  0.45194825     0.02500
C1444       C  0.12359507  0.06876536  0.45699596     0.08500
C1445       C  0.13519852  0.07058765  0.46117875    -0.04600
H1446       H  0.11146168  0.08157215  0.44769546     0.09200
H1447       H  0.14096128  0.06408020  0.46565746     0.10400
Cu1448     Cu  0.12960216  0.10514476  0.44735124     0.44200
Cu1449     Cu  0.15445433  0.09080669  0.46236152     0.42000
Cu1450     Cu  0.15666792  0.12249874  0.45337736     0.43900
N1451       N  0.13172140  0.12299948  0.44251524    -0.33200
N1452       N  0.14154296  0.12945169  0.44468921    -0.27500
C1453       C  0.13990361  0.14069791  0.44032085    -0.03600
C1454       C  0.12852861  0.14121369  0.43523062     0.08600
C1455       C  0.12359000  0.12990147  0.43673356     0.02400
H1456       H  0.14650969  0.14788970  0.44075879     0.10100
H1457       H  0.11477729  0.12686410  0.43379895     0.09200
N1458       N  0.17035516  0.11304318  0.46210549    -0.34700
N1459       N  0.16952171  0.10153786  0.46530240    -0.26900
C1460       C  0.17981873  0.09817988  0.47080839    -0.02100
C1461       C  0.18744172  0.10802633  0.47107718     0.06500
C1462       C  0.18122665  0.11730392  0.46551133     0.04600
H1463       H  0.18156678  0.08925572  0.47441453     0.09700
H1464       H  0.18432213  0.12647384  0.46409629     0.08500
N1465       N  0.91198205  0.97607395  0.33687872    -0.25800
N1466       N  0.90634093  0.97015536  0.34559932    -0.33700
C1467       C  0.91421577  0.96776559  0.35453952     0.02500
C1468       C  0.92530003  0.97240155  0.35125542     0.08500
C1469       C  0.92362339  0.97762396  0.34004585    -0.04600
H1470       H  0.91201749  0.96300880  0.36279686     0.09200
H1471       H  0.93033036  0.98218702  0.33459173     0.10400
Cu1472     Cu  0.88825034  0.96544771  0.34490719     0.44200
Cu1473     Cu  0.90351231  0.98151616  0.32104679     0.42000
Cu1474     Cu  0.87177685  0.97302144  0.31776837     0.43900
N1475       N  0.87027785  0.96104569  0.34216293    -0.33200
N1476       N  0.86419391  0.96374533  0.33223050    -0.27500
C1477       C  0.85287620  0.95938826  0.33323393    -0.03600
C1478       C  0.85188402  0.95372966  0.34431969     0.08600
C1479       C  0.86302845  0.95491803  0.34974469     0.02400
H1480       H  0.84595775  0.96019498  0.32637436     0.10100
H1481       H  0.86572683  0.95148630  0.35849718     0.09200
N1482       N  0.88162101  0.98224721  0.30470344    -0.34700
N1483       N  0.89310371  0.98536186  0.30591216    -0.26900
C1484       C  0.89670354  0.99119773  0.29586236    -0.02100
C1485       C  0.88702771  0.99176056  0.28802640     0.06500
C1486       C  0.87762307  0.98601887  0.29385016     0.04600
H1487       H  0.90568989  0.99473805  0.29438864     0.09700
H1488       H  0.86855301  0.98467296  0.29047519     0.08500
N1489       N  0.01266469  0.85333524  0.56765663    -0.25800
N1490       N  0.01739279  0.86276537  0.57327295    -0.33700
C1491       C  0.01871908  0.87187731  0.56534316     0.02500
C1492       C  0.01461211  0.86797593  0.55424500     0.08500
C1493       C  0.01083960  0.85619876  0.55596432    -0.04600
H1494       H  0.02264872  0.88058005  0.56745266     0.09200
H1495       H  0.00731171  0.85008095  0.54920094     0.10400
Cu1496     Cu  0.02256412  0.86257086  0.59124526     0.44200
Cu1497     Cu  0.00971856  0.83689373  0.57618116     0.42000
Cu1498     Cu  0.02004599  0.83433612  0.60752974     0.43900
N1499       N  0.02827085  0.86026856  0.60890676    -0.33200
N1500       N  0.02746382  0.84994652  0.61489624    -0.27500
C1501       C  0.03251437  0.85135694  0.62588053    -0.03600
C1502       C  0.03662747  0.86311069  0.62676020     0.08600
C1503       C  0.03383752  0.86851074  0.61588612     0.02400
H1504       H  0.03338226  0.84428163  0.63257824     0.10100
H1505       H  0.03597630  0.87764265  0.61310769     0.09200
N1506       N  0.01222170  0.82028327  0.59781065    -0.34700
N1507       N  0.00844682  0.82128110  0.58649631    -0.26900
C1508       C  0.00374439  0.81065611  0.58293028    -0.02100
C1509       C  0.00462191  0.80264075  0.59242589     0.06500
C1510       C  0.01001078  0.80896867  0.60172851     0.04600
H1511       H  0.99991291  0.80893943  0.57409992     0.09700
H1512       H  0.01208934  0.80565477  0.61069158     0.08500
N1513       N  0.00978617  0.95968862  0.43163921    -0.25800
N1514       N  0.01557022  0.96936001  0.42764949    -0.33700
C1515       C  0.00997090  0.97354056  0.41769603     0.02500
C1516       C  0.00024724  0.96610991  0.41535338     0.08500
C1517       C  0.00033711  0.95744644  0.42432957    -0.04600
H1518       H  0.01272614  0.98144195  0.41263281     0.09200
H1519       H  0.99397824  0.95011780  0.42552517     0.10400
Cu1520     Cu  0.03065495  0.97651063  0.43606263     0.44200
Cu1521     Cu  0.01497993  0.95009384  0.44689814     0.42000
Cu1522     Cu  0.04131041  0.96125678  0.46306158     0.43900
N1523       N  0.04529011  0.98227299  0.44616291    -0.33200
N1524       N  0.04920667  0.97676954  0.45603446    -0.27500
C1525       C  0.05869036  0.98294676  0.46049112    -0.03600
C1526       C  0.06076245  0.99273089  0.45303123     0.08600
C1527       C  0.05215401  0.99207328  0.44406441     0.02400
H1528       H  0.06362062  0.98053628  0.46858459     0.10100
H1529       H  0.05088711  0.99829305  0.43662188     0.09200
N1530       N  0.03154718  0.94607133  0.46821332    -0.34700
N1531       N  0.02195142  0.94203045  0.46233345    -0.26900
C1532       C  0.01760260  0.93223709  0.46809299    -0.02100
C1533       C  0.02482034  0.93005236  0.47801769     0.06500
C1534       C  0.03355597  0.93894975  0.47787294     0.04600
H1535       H  0.00970118  0.92719369  0.46532811     0.09700
H1536       H  0.04074209  0.94025637  0.48436750     0.08500
C1537       C  0.02036862  0.90451721  0.50430955     0.18500
C1538       C  0.03047370  0.90019356  0.51058999    -0.10600
C1539       C  0.02899454  0.89217918  0.52025865    -0.11500
C1540       C  0.01740253  0.88843729  0.52370225     0.20000
C1541       C  0.00729943  0.89263210  0.51732372    -0.13500
C1542       C  0.00878003  0.90065288  0.50764554    -0.11800
C1543       C  0.01590374  0.88068853  0.53406248     0.01000
C1544       C  0.01505030  0.87463324  0.54309239    -0.31800
C1545       C  0.02188593  0.91321407  0.49473124     0.02400
C1546       C  0.02323080  0.92077705  0.48698714    -0.33500
H1547       H  0.03947223  0.90313760  0.50811552     0.13400
H1548       H  0.03686923  0.88903053  0.52514757     0.13300
H1549       H  0.99829121  0.88983498  0.51992850     0.13100
H1550       H  0.00089701  0.90395724  0.50287462     0.12100
C1551       C  0.97413900  0.96935103  0.38954405     0.18500
C1552       C  0.97639593  0.96846567  0.37710346    -0.10600
C1553       C  0.96682833  0.96923622  0.36885095    -0.11500
C1554       C  0.95498541  0.97089587  0.37302205     0.20000
C1555       C  0.95276691  0.97182940  0.38545091    -0.13500
C1556       C  0.96230891  0.97106162  0.39368109    -0.11800
C1557       C  0.94503119  0.97152213  0.36466392     0.01000
C1558       C  0.93623482  0.97198230  0.35824766    -0.31800
C1559       C  0.98384655  0.96833500  0.39814618     0.02400
C1560       C  0.99152430  0.96737154  0.40581838    -0.33500
H1561       H  0.98550903  0.96712604  0.37380276     0.13400
H1562       H  0.96864929  0.96848950  0.35925873     0.13300
H1563       H  0.94365229  0.97309896  0.38878033     0.13100
H1564       H  0.96045498  0.97174150  0.40327422     0.12100
C1565       C  0.08568173  0.01969036  0.45606161     0.18500
C1566       C  0.09629784  0.01941884  0.44917290    -0.10600
C1567       C  0.10445948  0.02905070  0.44975540    -0.11500
C1568       C  0.10202911  0.03897836  0.45723267     0.20000
C1569       C  0.09142875  0.03923669  0.46413736    -0.13500
C1570       C  0.08327116  0.02961013  0.46355501    -0.11800
C1571       C  0.11018973  0.04907623  0.45754110     0.01000
C1572       C  0.11660134  0.05786903  0.45751057    -0.31800
C1573       C  0.07714484  0.00992438  0.45526597     0.02400
C1574       C  0.06979026  0.00194180  0.45440412    -0.33500
H1575       H  0.09822018  0.01181301  0.44330929     0.13400
H1576       H  0.11259784  0.02880099  0.44432532     0.13300
H1577       H  0.08943356  0.04690866  0.46989135     0.13100
H1578       H  0.07506383  0.02993298  0.46887709     0.12100
C1579       C  0.11142630  0.16806541  0.41683907     0.18500
C1580       C  0.10206173  0.16449154  0.40910859    -0.10600
C1581       C  0.09621313  0.17305063  0.40189264    -0.11500
C1582       C  0.09970004  0.18521245  0.40239987     0.20000
C1583       C  0.10893393  0.18881744  0.41027017    -0.13500
C1584       C  0.11478617  0.18025365  0.41748946    -0.11800
C1585       C  0.09431650  0.19383208  0.39431904     0.01000
C1586       C  0.09035417  0.20072204  0.38688624    -0.31800
C1587       C  0.11779787  0.15914402  0.42379369     0.02400
C1588       C  0.12295393  0.15124383  0.42921617    -0.33500
H1589       H  0.09941555  0.15507762  0.40852807     0.13400
H1590       H  0.08913546  0.17016226  0.39577637     0.13300
H1591       H  0.11174408  0.19819130  0.41066518     0.13100
H1592       H  0.12203228  0.18309594  0.42342437     0.12100
C1593       C  0.11634847  0.22527806  0.27502475     0.18500
C1594       C  0.11996907  0.21366351  0.27149604    -0.10600
C1595       C  0.12813577  0.21220381  0.26196816    -0.11500
C1596       C  0.13272101  0.22235160  0.25594001     0.20000
C1597       C  0.12902358  0.23396252  0.25939870    -0.13500
C1598       C  0.12085434  0.23542268  0.26892896    -0.11800
C1599       C  0.14147176  0.22085305  0.24645392     0.01000
C1600       C  0.14904692  0.21953625  0.23874877    -0.31800
C1601       C  0.10833517  0.22678663  0.28514485     0.02400
C1602       C  0.10202619  0.22789949  0.29394929    -0.33500
H1603       H  0.11657904  0.20576110  0.27618306     0.13400
H1604       H  0.13096651  0.20318849  0.25938733     0.13300
H1605       H  0.13254494  0.24187058  0.25481873     0.13100
H1606       H  0.11815125  0.24444468  0.27162048     0.12100
C1607       C  0.20033514  0.28939752  0.12670950     0.18500
C1608       C  0.18906093  0.28518867  0.13062490    -0.10600
C1609       C  0.18838163  0.27567850  0.13891675    -0.11500
C1610       C  0.19897326  0.27034405  0.14333275     0.20000
C1611       C  0.21024980  0.27446524  0.13933215    -0.13500
C1612       C  0.21092982  0.28398354  0.13103414    -0.11800
C1613       C  0.19823819  0.26086853  0.15219223     0.01000
C1614       C  0.19733817  0.25313989  0.15980654    -0.31800
C1615       C  0.20099725  0.29957283  0.11864226     0.02400
C1616       C  0.20122226  0.30846890  0.11235817    -0.33500
H1617       H  0.18081610  0.28934866  0.12738036     0.13400
H1618       H  0.17961860  0.27257533  0.14197863     0.13300
H1619       H  0.21849272  0.27041590  0.14271822     0.13100
H1620       H  0.21969341  0.28720814  0.12810527     0.12100
C1621       C  0.24348828  0.15290186  0.20409171     0.18500
C1622       C  0.24822949  0.14946045  0.21531592    -0.10600
C1623       C  0.25790476  0.14135614  0.21587126    -0.11500
C1624       C  0.26286202  0.13667273  0.20520349     0.20000
C1625       C  0.25804738  0.14003409  0.19398583    -0.13500
C1626       C  0.24837514  0.14813631  0.19343076    -0.11800
C1627       C  0.27317245  0.12879626  0.20573084     0.01000
C1628       C  0.28214309  0.12264497  0.20603471    -0.31800
C1629       C  0.23392874  0.16166239  0.20348262     0.02400
C1630       C  0.22629706  0.16939044  0.20285840    -0.33500
H1631       H  0.24454892  0.15314760  0.22360713     0.13400
H1632       H  0.26160720  0.13886023  0.22458665     0.13300
H1633       H  0.26186049  0.13651077  0.18568321     0.13100
H1634       H  0.24480889  0.15079364  0.18470507     0.12100
C1635       C  0.86352243  0.53838946  0.02778616     0.18500
C1636       C  0.87576650  0.54105918  0.02606125    -0.10600
C1637       C  0.88440092  0.53187875  0.02674056    -0.11500
C1638       C  0.88083772  0.51997658  0.02915208     0.20000
C1639       C  0.86857798  0.51726285  0.03077796    -0.13500
C1640       C  0.85992369  0.52646502  0.03010020    -0.11800
C1641       C  0.88982531  0.51065174  0.03017571     0.01000
C1642       C  0.89762303  0.50312043  0.03115703    -0.31800
C1643       C  0.85481108  0.54802788  0.02757760     0.02400
C1644       C  0.84828470  0.55674178  0.02773378    -0.33500
H1645       H  0.87864598  0.55025756  0.02431449     0.13400
H1646       H  0.89385583  0.53407499  0.02549088     0.13300
H1647       H  0.86573533  0.50808318  0.03266709     0.13100
H1648       H  0.85048066  0.52431428  0.03149311     0.12100
C1649       C  0.15568768  0.41722995  0.11554933     0.18500
C1650       C  0.15096425  0.41473291  0.12703143    -0.10600
C1651       C  0.14328763  0.42303523  0.13266913    -0.11500
C1652       C  0.14030376  0.43388148  0.12685699     0.20000
C1653       C  0.14507145  0.43641702  0.11539670    -0.13500
C1654       C  0.15275531  0.42810699  0.10975358    -0.11800
C1655       C  0.13198281  0.44216353  0.13244460     0.01000
C1656       C  0.12450819  0.44878372  0.13679261    -0.31800
C1657       C  0.16335075  0.40850696  0.10968364     0.02400
C1658       C  0.16953844  0.40081959  0.10506262    -0.33500
H1659       H  0.15314256  0.40633544  0.13157813     0.13400
H1660       H  0.13959388  0.42095036  0.14149585     0.13300
H1661       H  0.14276146  0.44474636  0.11079009     0.13100
H1662       H  0.15632700  0.43011439  0.10085917     0.12100
C1663       C  0.01498309  0.47777539  0.10974854     0.18500
C1664       C  0.00575590  0.48636242  0.10860451    -0.10600
C1665       C  0.99660333  0.48468900  0.10005249    -0.11500
C1666       C  0.99665779  0.47443085  0.09261924     0.20000
C1667       C  0.00582372  0.46578946  0.09384744    -0.13500
C1668       C  0.01496869  0.46746061  0.10239482    -0.11800
C1669       C  0.98744443  0.47288259  0.08359259     0.01000
C1670       C  0.97981197  0.47166671  0.07592769    -0.31800
C1671       C  0.02467948  0.47965038  0.11818360     0.02400
C1672       C  0.03328858  0.48076570  0.12474474    -0.33500
H1673       H  0.00570206  0.49438090  0.11422773     0.13400
H1674       H  0.98955666  0.49142716  0.09916385     0.13300
H1675       H  0.00595467  0.45783065  0.08813850     0.13100
H1676       H  0.02208317  0.46078029  0.10319150     0.12100
C1677       C  0.94371358  0.38799402  0.96373494     0.18500
C1678       C  0.93683117  0.38553161  0.97407174    -0.10600
C1679       C  0.93658094  0.39381603  0.98362000    -0.11500
C1680       C  0.94321033  0.40457863  0.98285165     0.20000
C1681       C  0.95016393  0.40698746  0.97255411    -0.13500
C1682       C  0.95041429  0.39871081  0.96301520    -0.11800
C1683       C  0.94261839  0.41332043  0.99244551     0.01000
C1684       C  0.94194785  0.42094395  0.00018918    -0.31800
C1685       C  0.94367481  0.37972921  0.95371202     0.02400
C1686       C  0.94362274  0.37325701  0.94495955    -0.33500
H1687       H  0.93158826  0.37728610  0.97469673     0.13400
H1688       H  0.93114319  0.39189151  0.99153156     0.13300
H1689       H  0.95528885  0.41530194  0.97185513     0.13100
H1690       H  0.95573363  0.40071441  0.95504204     0.12100
C1691       C  0.49200255  0.04963336  0.88976574     0.18500
C1692       C  0.49675923  0.05953691  0.88347059    -0.10600
C1693       C  0.50634583  0.05788764  0.87540908    -0.11500
C1694       C  0.51120509  0.04632900  0.87360741     0.20000
C1695       C  0.50639188  0.03641225  0.87984096    -0.13500
C1696       C  0.49680429  0.03806147  0.88790196    -0.11800
C1697       C  0.52140326  0.04473458  0.86571320     0.01000
C1698       C  0.53029986  0.04365077  0.85953373    -0.31800
C1699       C  0.48236106  0.05136379  0.89830043     0.02400
C1700       C  0.47442626  0.05270439  0.90563013    -0.33500
H1701       H  0.49312927  0.06852623  0.88486781     0.13400
H1702       H  0.51004136  0.06562586  0.87067807     0.13300
H1703       H  0.51012084  0.02744720  0.87855897     0.13100
H1704       H  0.49320710  0.03034785  0.89274722     0.12100
C1705       C  0.38179791  0.99726674  0.95590172     0.18500
C1706       C  0.37767539  0.99361072  0.96731178    -0.10600
C1707       C  0.37020067  0.98345696  0.96840018    -0.11500
C1708       C  0.36681970  0.97692217  0.95808444     0.20000
C1709       C  0.37091718  0.98060876  0.94668282    -0.13500
C1710       C  0.37838190  0.99074911  0.94559588    -0.11800
C1711       C  0.35933831  0.96631962  0.95916449     0.01000
C1712       C  0.35332692  0.95724183  0.95975615    -0.31800
C1713       C  0.38966980  0.00756989  0.95472359     0.02400
C1714       C  0.39645172  0.01599985  0.95338340    -0.33500
H1715       H  0.38027990  0.99856274  0.97534769     0.13400
H1716       H  0.36711441  0.98067231  0.97726652     0.13300
H1717       H  0.36839246  0.97561203  0.93864865     0.13100
H1718       H  0.38153513  0.99347177  0.93673309     0.12100
C1719       C  0.39468596  0.12833631  0.17067653     0.18500
C1720       C  0.40062932  0.12132212  0.16197263    -0.10600
C1721       C  0.40876583  0.12673236  0.15396415    -0.11500
C1722       C  0.41100175  0.13918376  0.15461847     0.20000
C1723       C  0.40523283  0.14616638  0.16347260    -0.13500
C1724       C  0.39708824  0.14075075  0.17148879    -0.11800
C1725       C  0.41869657  0.14484399  0.14578756     0.01000
C1726       C  0.42463595  0.14932504  0.13782614    -0.31800
C1727       C  0.38561747  0.12291461  0.17825410     0.02400
C1728       C  0.37753221  0.11837317  0.18396401    -0.33500
H1729       H  0.39878921  0.11173115  0.16121941     0.13400
H1730       H  0.41312783  0.12125661  0.14711547     0.13300
H1731       H  0.40684760  0.15581031  0.16402206     0.13100
H1732       H  0.39249081  0.14627219  0.17814243     0.12100
C1733       C  0.44067849  0.11558670  0.00221373     0.18500
C1734       C  0.45221442  0.11880524  0.00630823    -0.10600
C1735       C  0.45349145  0.12639868  0.01633635    -0.11500
C1736       C  0.44323669  0.13080570  0.02230633     0.20000
C1737       C  0.43170107  0.12772446  0.01810735    -0.13500
C1738       C  0.43042416  0.12013120  0.00808018    -0.11800
C1739       C  0.44453873  0.13812383  0.03297928     0.01000
C1740       C  0.44553342  0.14388955  0.04217007    -0.31800
C1741       C  0.43936960  0.10722704  0.99233602     0.02400
C1742       C  0.43831748  0.09982775  0.98440775    -0.33500
H1743       H  0.46020416  0.11530768  0.00186376     0.13400
H1744       H  0.46245222  0.12869577  0.01952898     0.13300
H1745       H  0.42371123  0.13105339  0.02267864     0.13100
H1746       H  0.42146327  0.11766599  0.00501580     0.12100
C1747       C  0.35442596  0.84722573  0.91748210     0.18500
C1748       C  0.36699563  0.84619802  0.91642621    -0.10600
C1749       C  0.37201208  0.83834585  0.90788529    -0.11500
C1750       C  0.36447552  0.83149342  0.90036854     0.20000
C1751       C  0.35190654  0.83242611  0.90151207    -0.13500
C1752       C  0.34689021  0.84027882  0.91005205    -0.11800
C1753       C  0.36960580  0.82388317  0.89116246     0.01000
C1754       C  0.37372042  0.81790118  0.88304508    -0.31800
C1755       C  0.34929195  0.85578706  0.92580970     0.02400
C1756       C  0.34517671  0.86344419  0.93237157    -0.33500
H1757       H  0.37290213  0.85158054  0.92208153     0.13400
H1758       H  0.38174174  0.83773893  0.90703297     0.13300
H1759       H  0.34599931  0.82721290  0.89570036     0.13100
H1760       H  0.33715976  0.84105557  0.91074773     0.12100
C1761       C  0.33951487  0.80542398  0.74805645     0.18500
C1762       C  0.34739044  0.79551129  0.74837204    -0.10600
C1763       C  0.35523651  0.79397443  0.75816150    -0.11500
C1764       C  0.35522844  0.80234548  0.76766359     0.20000
C1765       C  0.34743452  0.81231959  0.76728638    -0.13500
C1766       C  0.33959262  0.81385541  0.75750242    -0.11800
C1767       C  0.36285223  0.80048341  0.77802134     0.01000
C1768       C  0.36870394  0.79894969  0.78707429    -0.31800
C1769       C  0.33107532  0.80673549  0.73826566     0.02400
C1770       C  0.32366159  0.80766263  0.73034945    -0.33500
H1771       H  0.34736393  0.78891314  0.74113457     0.13400
H1772       H  0.36118816  0.78620255  0.75839402     0.13300
H1773       H  0.34731791  0.81881511  0.77461626     0.13100
H1774       H  0.33350324  0.82152359  0.75736889     0.12100
C1775       C  0.26824017  0.74574486  0.64407318     0.18500
C1776       C  0.26873171  0.73396946  0.64871494    -0.10600
C1777       C  0.26651326  0.72408317  0.64115465    -0.11500
C1778       C  0.26378272  0.72592710  0.62892330     0.20000
C1779       C  0.26331067  0.73770072  0.62427474    -0.13500
C1780       C  0.26552929  0.74759079  0.63183813    -0.11800
C1781       C  0.26165555  0.71571573  0.62114876     0.01000
C1782       C  0.26027873  0.70689464  0.61490057    -0.31800
C1783       C  0.27044365  0.75592250  0.65186960     0.02400
C1784       C  0.27217916  0.76445704  0.65841834    -0.33500
H1785       H  0.27082108  0.73243754  0.65815911     0.13400
H1786       H  0.26694139  0.71501369  0.64483408     0.13300
H1787       H  0.26124787  0.73922733  0.61482508     0.13100
H1788       H  0.26512803  0.75665975  0.62815674     0.12100
C1789       C  0.05722774  0.87859185  0.65311846     0.18500
C1790       C  0.06062062  0.89072567  0.65179301    -0.10600
C1791       C  0.06855167  0.89603017  0.66008036    -0.11500
C1792       C  0.07312523  0.88922939  0.66973533     0.20000
C1793       C  0.06964061  0.87712925  0.67113498    -0.13500
C1794       C  0.06170491  0.87182225  0.66284398    -0.11800
C1795       C  0.08173792  0.89454089  0.67790583     0.01000
C1796       C  0.08936077  0.89892945  0.68433095    -0.31800
C1797       C  0.04950799  0.87299904  0.64426329     0.02400
C1798       C  0.04341817  0.86839031  0.63648921    -0.33500
H1799       H  0.05725452  0.89603248  0.64428095     0.13400
H1800       H  0.07123004  0.90537531  0.65887873     0.13300
H1801       H  0.07316676  0.87176995  0.67853450     0.13100
H1802       H  0.05918092  0.86242101  0.66392911     0.12100
C1803       C  0.22151144  0.86324220  0.70284432     0.18500
C1804       C  0.22354537  0.87573903  0.70241182    -0.10600
C1805       C  0.21391445  0.88377709  0.70395081    -0.11500
C1806       C  0.20223713  0.87932842  0.70593341     0.20000
C1807       C  0.20022469  0.86683352  0.70641455    -0.13500
C1808       C  0.20984343  0.85880565  0.70487658    -0.11800
C1809       C  0.19224418  0.88750252  0.70730237     0.01000
C1810       C  0.18341163  0.89377637  0.70829171    -0.31800
C1811       C  0.23134570  0.85495170  0.70109846     0.02400
C1812       C  0.23944992  0.84785216  0.69959366    -0.33500
H1813       H  0.23254138  0.87925172  0.70083861     0.13400
H1814       H  0.21555557  0.89342583  0.70354394     0.13300
H1815       H  0.19122133  0.86330739  0.70792279     0.13100
H1816       H  0.20817967  0.84915671  0.70522010     0.12100
C1817       C  0.30836692  0.60133388  0.61501502     0.18500
C1818       C  0.32006249  0.60065272  0.61022897    -0.10600
C1819       C  0.32873903  0.59328005  0.61571920    -0.11500
C1820       C  0.32577744  0.58655167  0.62603627     0.20000
C1821       C  0.31406441  0.58718105  0.63079711    -0.13500
C1822       C  0.30537900  0.59456223  0.62530162    -0.11800
C1823       C  0.33481426  0.57911772  0.63174803     0.01000
C1824       C  0.34272524  0.57308344  0.63620578    -0.31800
C1825       C  0.29958067  0.60925017  0.60956471     0.02400
C1826       C  0.29253235  0.61631221  0.60516560    -0.33500
H1827       H  0.32249313  0.60588052  0.60231242     0.13400
H1828       H  0.33776731  0.59287569  0.61196217     0.13300
H1829       H  0.31167320  0.58202955  0.63877418     0.13100
H1830       H  0.29637890  0.59505339  0.62911247     0.12100
C1831       C  0.47246705  0.54468297  0.59416796     0.18500
C1832       C  0.46863585  0.55480463  0.60073712    -0.10600
C1833       C  0.45916223  0.55374785  0.60901564    -0.11500
C1834       C  0.45349035  0.54256321  0.61076197     0.20000
C1835       C  0.45736866  0.53241741  0.60425105    -0.13500
C1836       C  0.46685001  0.53347485  0.59596676    -0.11800
C1837       C  0.44343453  0.54163273  0.61892131     0.01000
C1838       C  0.43470014  0.54128463  0.62539741    -0.31800
C1839       C  0.48198125  0.54588022  0.58541329     0.02400
C1840       C  0.48979599  0.54707290  0.57793664    -0.33500
H1841       H  0.47290036  0.56351773  0.59938564     0.13400
H1842       H  0.45618852  0.56165964  0.61396451     0.13300
H1843       H  0.45299968  0.52374183  0.60549600     0.13100
H1844       H  0.46972835  0.52560102  0.59090430     0.12100
C1845       C  0.52194423  0.61084165  0.48137465     0.18500
C1846       C  0.51117623  0.61093206  0.47472542    -0.10600
C1847       C  0.50979102  0.61891043  0.46502152    -0.11500
C1848       C  0.51916501  0.62683429  0.46193568     0.20000
C1849       C  0.52991841  0.62677976  0.46861442    -0.13500
C1850       C  0.53130418  0.61879825  0.47832172    -0.11800
C1851       C  0.51789329  0.63473022  0.45168768     0.01000
C1852       C  0.51703945  0.64093743  0.44277933    -0.31800
C1853       C  0.52346654  0.60240903  0.49114900     0.02400
C1854       C  0.52472377  0.59509378  0.49911892    -0.33500
H1855       H  0.50390173  0.60478443  0.47698597     0.13400
H1856       H  0.50146654  0.61883517  0.45987358     0.13300
H1857       H  0.53724750  0.63282606  0.46625944     0.13100
H1858       H  0.53968425  0.61876796  0.48337985     0.12100
C1859       C  0.58530610  0.49583328  0.52835720     0.18500
C1860       C  0.59241834  0.49531045  0.51789498    -0.10600
C1861       C  0.59996599  0.48537350  0.51586806    -0.11500
C1862       C  0.60041484  0.47593334  0.52429888     0.20000
C1863       C  0.59337030  0.47650748  0.53480294    -0.13500
C1864       C  0.58582858  0.48643607  0.53682787    -0.11800
C1865       C  0.60790614  0.46554044  0.52212635     0.01000
C1866       C  0.61385595  0.45653212  0.52071169    -0.31800
C1867       C  0.57722836  0.50582868  0.53025390     0.02400
C1868       C  0.57014686  0.51395489  0.53176732    -0.33500
H1869       H  0.59204995  0.50251995  0.51127416     0.13400
H1870       H  0.60536455  0.48500624  0.50771046     0.13300
H1871       H  0.59364022  0.46924330  0.54137016     0.13100
H1872       H  0.58033924  0.48673839  0.54492936     0.12100
C1873       C  0.89124336  0.38826342  0.81737901     0.18500
C1874       C  0.89824510  0.37844932  0.81347567    -0.10600
C1875       C  0.90576716  0.37238383  0.82164886    -0.11500
C1876       C  0.90629068  0.37611468  0.83374366     0.20000
C1877       C  0.89936348  0.38598705  0.83759945    -0.13500
C1878       C  0.89185986  0.39203935  0.82944470    -0.11800
C1879       C  0.91371680  0.36977043  0.84233217     0.01000
C1880       C  0.91949771  0.36498417  0.85022944    -0.31800
C1881       C  0.88303834  0.39417985  0.80920608     0.02400
C1882       C  0.87556523  0.39900179  0.80291670    -0.33500
H1883       H  0.89778849  0.37541688  0.80417633     0.13400
H1884       H  0.91107147  0.36474775  0.81857670     0.13300
H1885       H  0.89968300  0.38893432  0.84693370     0.13100
H1886       H  0.88644172  0.39957296  0.83257551     0.12100
C1887       C  0.74387050  0.36325349  0.78225190     0.18500
C1888       C  0.74476753  0.37324888  0.78998563    -0.10600
C1889       C  0.75410460  0.38163772  0.78844738    -0.11500
C1890       C  0.76256772  0.38006824  0.77915854     0.20000
C1891       C  0.76156799  0.37016135  0.77133222    -0.13500
C1892       C  0.75224034  0.36177955  0.77286990    -0.11800
C1893       C  0.77262752  0.38823157  0.77801289     0.01000
C1894       C  0.78153891  0.39445587  0.77731288    -0.31800
C1895       C  0.73455880  0.35435597  0.78408332     0.02400
C1896       C  0.72693482  0.34670754  0.78553154    -0.33500
H1897       H  0.73835113  0.37447154  0.79727807     0.13400
H1898       H  0.75482710  0.38923003  0.79459056     0.13300
H1899       H  0.76809654  0.36882352  0.76416016     0.13100
H1900       H  0.75164187  0.35408126  0.76684551     0.12100
C1901       C  0.61409470  0.34932107  0.56677133     0.18500
C1902       C  0.62114631  0.34243650  0.57472205    -0.10600
C1903       C  0.61558721  0.33496065  0.58327258    -0.11500
C1904       C  0.60295848  0.33434568  0.58390741     0.20000
C1905       C  0.59591368  0.34115884  0.57589359    -0.13500
C1906       C  0.60147008  0.34862982  0.56734617    -0.11800
C1907       C  0.59725318  0.32711248  0.59308910     0.01000
C1908       C  0.59268419  0.32146975  0.60121213    -0.31800
C1909       C  0.61974408  0.35740383  0.55829088     0.02400
C1910       C  0.62403661  0.36466881  0.55139920    -0.33500
H1911       H  0.63091364  0.34294773  0.57439748     0.13400
H1912       H  0.62111965  0.32978046  0.58947178     0.13300
H1913       H  0.58614463  0.34080473  0.57634781     0.13100
H1914       H  0.59593233  0.35396152  0.56128139     0.12100
C1915       C  0.62973312  0.30085063  0.73472337     0.18500
C1916       C  0.62748221  0.28983270  0.72889794    -0.10600
C1917       C  0.61920769  0.28928930  0.71936314    -0.11500
C1918       C  0.61314753  0.29975954  0.71561522     0.20000
C1919       C  0.61531867  0.31076032  0.72150795    -0.13500
C1920       C  0.62359507  0.31130373  0.73104621    -0.11800
C1921       C  0.60508499  0.29929183  0.70542736     0.01000
C1922       C  0.59881690  0.29890628  0.69652915    -0.31800
C1923       C  0.63853097  0.30148258  0.74427513     0.02400
C1924       C  0.64609347  0.30209734  0.75208826    -0.33500
H1925       H  0.63220098  0.28170321  0.73164750     0.13400
H1926       H  0.61763827  0.28074965  0.71483113     0.13300
H1927       H  0.61072459  0.31892243  0.71864482     0.13100
H1928       H  0.62529199  0.31987658  0.73546917     0.12100
C1929       C  0.65833839  0.09714210  0.87234250     0.18500
C1930       C  0.65520640  0.09833648  0.86013014    -0.10600
C1931       C  0.64710298  0.09021269  0.85483859    -0.11500
C1932       C  0.64208689  0.08084807  0.86172934     0.20000
C1933       C  0.64538668  0.07951125  0.87389037    -0.13500
C1934       C  0.65349923  0.08764361  0.87918754    -0.11800
C1935       C  0.63307418  0.07306289  0.85648675     0.01000
C1936       C  0.62503862  0.06709092  0.85218355    -0.31800
C1937       C  0.66605063  0.10600388  0.87793591     0.02400
C1938       C  0.67206592  0.11389913  0.88243549    -0.33500
H1939       H  0.65885591  0.10567193  0.85476378     0.13400
H1940       H  0.64457532  0.09136925  0.84544808     0.13300
H1941       H  0.64152146  0.07233787  0.87932187     0.13100
H1942       H  0.65582242  0.08665952  0.88864938     0.12100
C1943       C  0.69697873  0.24596822  0.84500347     0.18500
C1944       C  0.69983084  0.24811276  0.85716437    -0.10600
C1945       C  0.70085582  0.23842651  0.86525661    -0.11500
C1946       C  0.69903719  0.22655370  0.86121897     0.20000
C1947       C  0.69627561  0.22441555  0.84904199    -0.13500
C1948       C  0.69525083  0.23408864  0.84096118    -0.11800
C1949       C  0.69976136  0.21654425  0.86953274     0.01000
C1950       C  0.69998533  0.20775725  0.87599703    -0.31800
C1951       C  0.69566817  0.25591959  0.83668867     0.02400
C1952       C  0.69441705  0.26409015  0.82956418    -0.33500
H1953       H  0.70118670  0.25725839  0.86039657     0.13400
H1954       H  0.70298283  0.24019509  0.87464930     0.13300
H1955       H  0.69483722  0.21527929  0.84581488     0.13100
H1956       H  0.69304172  0.23231239  0.83158748     0.12100
C1957       C  0.82407805  0.93502019  0.35966613     0.18500
C1958       C  0.81587601  0.92821411  0.35282940    -0.10600
C1959       C  0.80737363  0.92085719  0.35862219    -0.11500
C1960       C  0.80703046  0.92027248  0.37127724     0.20000
C1961       C  0.81508903  0.92724567  0.37811053    -0.13500
C1962       C  0.82358672  0.93460160  0.37231998    -0.11800
C1963       C  0.79892557  0.91198028  0.37719975     0.01000
C1964       C  0.79264907  0.90437018  0.38184405    -0.31800
C1965       C  0.83334780  0.94199726  0.35375673     0.02400
C1966       C  0.84156791  0.94750986  0.34918634    -0.33500
H1967       H  0.81619615  0.92842676  0.34304415     0.13400
H1968       H  0.80123414  0.91545261  0.35324187     0.13300
H1969       H  0.81495858  0.92681655  0.38789326     0.13100
H1970       H  0.82991110  0.93978777  0.37770077     0.12100
C1971       C  0.76889453  0.77109363  0.34391504     0.18500
C1972       C  0.77901492  0.77816513  0.34667710    -0.10600
C1973       C  0.77780746  0.78832883  0.35407555    -0.11500
C1974       C  0.76647278  0.79146513  0.35873926     0.20000
C1975       C  0.75635230  0.78435647  0.35603975    -0.13500
C1976       C  0.75756131  0.77417985  0.34863116    -0.11800
C1977       C  0.76525247  0.80208303  0.36612616     0.01000
C1978       C  0.76458191  0.81113764  0.37213450    -0.31800
C1979       C  0.77014875  0.76085066  0.33602748     0.02400
C1980       C  0.77148184  0.75253068  0.32913737    -0.33500
H1981       H  0.78780999  0.77586870  0.34304778     0.13400
H1982       H  0.78568369  0.79377838  0.35609613     0.13300
H1983       H  0.74754453  0.78672030  0.35959098     0.13100
H1984       H  0.74967466  0.76878111  0.34651962     0.12100
C1985       C  0.57288826  0.62586095  0.31685934     0.18500
C1986       C  0.56431312  0.61898462  0.32313966    -0.10600
C1987       C  0.55606657  0.62466928  0.33085306    -0.11500
C1988       C  0.55635606  0.63725272  0.33231530     0.20000
C1989       C  0.56482329  0.64414443  0.32590585    -0.13500
C1990       C  0.57306761  0.63846074  0.31819225    -0.11800
C1991       C  0.54839149  0.64299843  0.34084594     0.01000
C1992       C  0.54218352  0.64756268  0.34854935    -0.31800
C1993       C  0.58184078  0.61998325  0.30947718     0.02400
C1994       C  0.58979939  0.61531812  0.30368293    -0.33500
H1995       H  0.56412838  0.60923445  0.32222215     0.13400
H1996       H  0.54960427  0.61924462  0.33581989     0.13300
H1997       H  0.56517735  0.65386934  0.32702046     0.13100
H1998       H  0.57969672  0.64386136  0.31342323     0.12100
C1999       C  0.72008698  0.65668224  0.27953364     0.18500
C2000       C  0.72247511  0.64425167  0.28009703    -0.10600
C2001       C  0.71303611  0.63592638  0.27891191    -0.11500
C2002       C  0.70118720  0.64001155  0.27715058     0.20000
C2003       C  0.69882059  0.65243960  0.27652211    -0.13500
C2004       C  0.70824939  0.66075584  0.27770661    -0.11800
C2005       C  0.69138941  0.63152122  0.27626144     0.01000
C2006       C  0.68281554  0.62482662  0.27582797    -0.31800
C2007       C  0.72971589  0.66527813  0.28101764     0.02400
C2008       C  0.73761520  0.67263961  0.28239853    -0.33500
H2009       H  0.73159787  0.64101046  0.28152565     0.13400
H2010       H  0.71495687  0.62633625  0.27944672     0.13300
H2011       H  0.68968544  0.65569403  0.27519893     0.13100
H2012       H  0.70630371  0.67034771  0.27727621     0.12100
C2013       C  0.85353219  0.66747923  0.06987989     0.18500
C2014       C  0.86605560  0.66712735  0.07166519    -0.10600
C2015       C  0.87155662  0.67525817  0.07962584    -0.11500
C2016       C  0.86456585  0.68378913  0.08584106     0.20000
C2017       C  0.85206257  0.68428231  0.08390803    -0.13500
C2018       C  0.84655631  0.67614406  0.07593931    -0.11800
C2019       C  0.87014472  0.69157290  0.09465225     0.01000
C2020       C  0.87476608  0.69753949  0.10251510    -0.31800
C2021       C  0.84782231  0.65858311  0.06228668     0.02400
C2022       C  0.84323854  0.65067752  0.05634384    -0.33500
H2023       H  0.87153168  0.66043592  0.06706943     0.13400
H2024       H  0.88121777  0.67475252  0.08109642     0.13300
H2025       H  0.84655772  0.69080102  0.08871254     0.13100
H2026       H  0.83685956  0.67646793  0.07466707     0.12100
C2027       C  0.83644962  0.71948573  0.23411328     0.18500
C2028       C  0.84767809  0.71367410  0.23477527    -0.10600
C2029       C  0.85603473  0.71497130  0.22537468    -0.11500
C2030       C  0.85319381  0.72209413  0.21529024     0.20000
C2031       C  0.84200405  0.72797770  0.21468306    -0.13500
C2032       C  0.83365585  0.72668135  0.22407362    -0.11800
C2033       C  0.86152325  0.72301359  0.20534776     0.01000
C2034       C  0.86800620  0.72348118  0.19660732    -0.31800
C2035       C  0.82769583  0.71793531  0.24360021     0.02400
C2036       C  0.82009654  0.71672738  0.25130681    -0.33500
H2037       H  0.84992307  0.70807452  0.24249034     0.13400
H2038       H  0.86463903  0.71033550  0.22590941     0.13300
H2039       H  0.83969027  0.73345901  0.20690321     0.13100
H2040       H  0.82499428  0.73120030  0.22346112     0.12100
C2041       C  0.46847501  0.75813696  0.84095137     0.18500
C2042       C  0.47837692  0.76600486  0.84053971    -0.10600
C2043       C  0.49012477  0.76140802  0.84101754    -0.11500
C2044       C  0.49203126  0.74892020  0.84191617     0.20000
C2045       C  0.48213085  0.74104097  0.84239618    -0.13500
C2046       C  0.47036628  0.74564441  0.84191800    -0.11800
C2047       C  0.50415657  0.74425214  0.84216184     0.01000
C2048       C  0.51445690  0.74072869  0.84213619    -0.31800
C2049       C  0.45641273  0.76292163  0.84028480     0.02400
C2050       C  0.44643296  0.76722784  0.83968326    -0.33500
H2051       H  0.47701511  0.77567848  0.83979636     0.13400
H2052       H  0.49771459  0.76757704  0.84062826     0.13300
H2053       H  0.48350612  0.73136580  0.84307989     0.13100
H2054       H  0.46276895  0.73948252  0.84224690     0.12100
C2055       C  0.62773213  0.72452229  0.75231712     0.18500
C2056       C  0.61904960  0.71549232  0.75413976    -0.10600
C2057       C  0.61105207  0.71628076  0.76388844    -0.11500
C2058       C  0.61170713  0.72610552  0.77185197     0.20000
C2059       C  0.62029775  0.73521131  0.76994675    -0.13500
C2060       C  0.62829831  0.73442181  0.76019648    -0.11800
C2061       C  0.60394588  0.72657920  0.78226748     0.01000
C2062       C  0.59793057  0.72678631  0.79134278    -0.31800
C2063       C  0.63632130  0.72337947  0.74263575     0.02400
C2064       C  0.64373892  0.72203105  0.73478434    -0.33500
H2065       H  0.61857129  0.70777556  0.74812673     0.13400
H2066       H  0.60448482  0.70916102  0.76531299     0.13300
H2067       H  0.62091896  0.74281647  0.77608692     0.13100
H2068       H  0.63501148  0.74142848  0.75889666     0.12100
C2069       C  0.73748036  0.85862866  0.47907648     0.18500
C2070       C  0.72938390  0.84955030  0.48259970    -0.10600
C2071       C  0.72435179  0.84969458  0.49420037    -0.11500
C2072       C  0.72738709  0.85891744  0.50233713     0.20000
C2073       C  0.73543945  0.86802894  0.49879462    -0.13500
C2074       C  0.74047225  0.86788475  0.48719180    -0.11800
C2075       C  0.72241472  0.85889320  0.51437175     0.01000
C2076       C  0.71839170  0.85863605  0.52450320    -0.31800
C2077       C  0.74269834  0.85845203  0.46714945     0.02400
C2078       C  0.74698628  0.85833888  0.45712615    -0.33500
H2079       H  0.72699286  0.84235690  0.47640027     0.13400
H2080       H  0.71814857  0.84259401  0.49684239     0.13300
H2081       H  0.73786507  0.87519630  0.50501031     0.13100
H2082       H  0.74671091  0.87495899  0.48456324     0.12100
C2083       C  0.69501232  0.76979073  0.63863538     0.18500
C2084       C  0.68477397  0.77476115  0.63309866    -0.10600
C2085       C  0.68601488  0.78422301  0.62481359    -0.11500
C2086       C  0.69750032  0.78874623  0.62202647     0.20000
C2087       C  0.70774647  0.78374740  0.62752815    -0.13500
C2088       C  0.70650489  0.77427978  0.63581747    -0.11800
C2089       C  0.69870403  0.79879208  0.61386416     0.01000
C2090       C  0.69940435  0.80759942  0.60749470    -0.31800
C2091       C  0.69368174  0.76025207  0.64736441     0.02400
C2092       C  0.69236834  0.75244792  0.65484588    -0.33500
H2093       H  0.67584371  0.77138280  0.63524883     0.13400
H2094       H  0.67802845  0.78807478  0.62066497     0.13300
H2095       H  0.71666161  0.78723021  0.62548936     0.13100
H2096       H  0.71447529  0.77052533  0.64008288     0.12100
C2097       C  0.83249073  0.49894768  0.74931862     0.18500
C2098       C  0.82393863  0.50157283  0.74035674    -0.10600
C2099       C  0.82364093  0.51303607  0.73502661    -0.11500
C2100       C  0.83189517  0.52193325  0.73863108     0.20000
C2101       C  0.84046988  0.51930279  0.74757431    -0.13500
C2102       C  0.84076785  0.50783248  0.75290759    -0.11800
C2103       C  0.83145326  0.53378937  0.73326996     0.01000
C2104       C  0.83092627  0.54376636  0.72890219    -0.31800
C2105       C  0.83272882  0.48714520  0.75480322     0.02400
C2106       C  0.83265239  0.47715759  0.75917262    -0.33500
H2107       H  0.81749641  0.49477192  0.73751164     0.13400
H2108       H  0.81696198  0.51497176  0.72813456     0.13300
H2109       H  0.84688500  0.52611855  0.75044300     0.13100
H2110       H  0.84741960  0.50590244  0.75982705     0.12100
C2111       C  0.74125651  0.65728735  0.70868062     0.18500
C2112       C  0.75105851  0.66006343  0.71618357    -0.10600
C2113       C  0.76060853  0.65189087  0.71738677    -0.11500
C2114       C  0.76039249  0.64090144  0.71109959     0.20000
C2115       C  0.75050004  0.63803329  0.70373740    -0.13500
C2116       C  0.74093882  0.64621549  0.70253291    -0.11800
C2117       C  0.77059497  0.63288424  0.71176346     0.01000
C2118       C  0.77954434  0.62669072  0.71197253    -0.31800
C2119       C  0.73179017  0.66601263  0.70695780     0.02400
C2120       C  0.72419447  0.67364626  0.70537708    -0.33500
H2121       H  0.75140414  0.66861621  0.72094838     0.13400
H2122       H  0.76824023  0.65421942  0.72305564     0.13300
H2123       H  0.75027276  0.62958116  0.69879212     0.13100
H2124       H  0.73341223  0.64399999  0.69668232     0.12100
C2125       C  0.23940518  0.66131040  0.50587596     0.18500
C2126       C  0.22865621  0.65514289  0.50327276    -0.10600
C2127       C  0.22385194  0.65540567  0.49157288    -0.11500
C2128       C  0.22976471  0.66184175  0.48240505     0.20000
C2129       C  0.24048930  0.66805014  0.48501496    -0.13500
C2130       C  0.24529515  0.66778723  0.49671856    -0.11800
C2131       C  0.22486695  0.66201883  0.47033001     0.01000
C2132       C  0.22078134  0.66212628  0.46021471    -0.31800
C2133       C  0.24432964  0.66103000  0.51794226     0.02400
C2134       C  0.24822063  0.66083567  0.52813586    -0.33500
H2135       H  0.22400312  0.65012776  0.51027732     0.23000
H2136       H  0.21555161  0.65057877  0.48967258     0.13300
H2137       H  0.24513831  0.67306576  0.47800823     0.13100
H2138       H  0.25359414  0.67261490  0.49862105     0.12100
C2139       C  0.19503694  0.74794764  0.34450065     0.18500
C2140       C  0.18555166  0.74461443  0.35219149    -0.10600
C2141       C  0.18717665  0.73530566  0.36059715    -0.11500
C2142       C  0.19829654  0.72930010  0.36135520     0.20000
C2143       C  0.20781647  0.73271050  0.35374169    -0.13500
C2144       C  0.20619186  0.74201894  0.34533740    -0.11800
C2145       C  0.19976936  0.71932534  0.36958016     0.01000
C2146       C  0.20070000  0.71058280  0.37602168    -0.31800
C2147       C  0.19326223  0.75725534  0.33558205     0.02400
C2148       C  0.19187915  0.76488934  0.32792665    -0.33500
H2149       H  0.17688335  0.74912158  0.35160702     0.13400
H2150       H  0.17973564  0.73270157  0.36639900     0.13300
H2151       H  0.21643214  0.72808926  0.35420856     0.13100
H2152       H  0.21358100  0.74450878  0.33941915     0.12100
C2153       C  0.99503657  0.76520032  0.14302222     0.18500
C2154       C  0.99294885  0.75545652  0.15083942    -0.10600
C2155       C  0.98145350  0.75028159  0.15157591    -0.11500
C2156       C  0.97199649  0.75483061  0.14449997     0.20000
C2157       C  0.97407481  0.76458757  0.13669059    -0.13500
C2158       C  0.98557715  0.76976586  0.13595387    -0.11800
C2159       C  0.96019602  0.74944304  0.14522056     0.01000
C2160       C  0.95034278  0.74485607  0.14581193    -0.31800
C2161       C  0.00686040  0.77054049  0.14234335     0.02400
C2162       C  0.01680621  0.77495233  0.14206312    -0.33500
H2163       H  0.00019757  0.75187107  0.15635854     0.13400
H2164       H  0.97994228  0.74274195  0.15764260     0.13300
H2165       H  0.96682113  0.76817376  0.13117926     0.13100
H2166       H  0.98709227  0.77731031  0.12989464     0.12100
C2167       C  0.12902220  0.79975255  0.23021990     0.18500
C2168       C  0.12147377  0.80971394  0.22815598    -0.10600
C2169       C  0.11342608  0.80962347  0.21840905    -0.11500
C2170       C  0.11292076  0.79957199  0.21071670     0.20000
C2171       C  0.12045908  0.78962271  0.21280172    -0.13500
C2172       C  0.12849342  0.78971290  0.22253310    -0.11800
C2173       C  0.10489508  0.79951636  0.20051624     0.01000
C2174       C  0.09858026  0.79929991  0.19166101    -0.31800
C2175       C  0.13754986  0.79991626  0.24000340     0.02400
C2176       C  0.14507476  0.80007835  0.24785651    -0.33500
H2177       H  0.12186716  0.81755100  0.23401720     0.13400
H2178       H  0.10767074  0.81738712  0.21683104     0.13300
H2179       H  0.12017431  0.78183599  0.20686614     0.13100
H2180       H  0.13434126  0.78199892  0.22401790     0.12100
C2181       C  0.33385183  0.99539933  0.24568387     0.18500
C2182       C  0.32331144  0.00240109  0.24556389    -0.10600
C2183       C  0.32333598  0.01381056  0.24013410    -0.11500
C2184       C  0.33389913  0.01827902  0.23479219     0.20000
C2185       C  0.34446106  0.01129362  0.23492077    -0.13500
C2186       C  0.34443620  0.99986612  0.24035789    -0.11800
C2187       C  0.33385550  0.03006647  0.22929399     0.01000
C2188       C  0.33348037  0.04005108  0.22494775    -0.31800
C2189       C  0.33370953  0.98358983  0.25113959     0.02400
C2190       C  0.33325520  0.97365391  0.25559361    -0.33500
H2191       H  0.31507625  0.99902992  0.24964123     0.13400
H2192       H  0.31512757  0.01914447  0.24009997     0.13300
H2193       H  0.35268547  0.01467263  0.23083006     0.13100
H2194       H  0.35263411  0.99451794  0.24038811     0.12100
C2195       C  0.24167713  0.86257064  0.27952280     0.18500
C2196       C  0.24904090  0.86273163  0.26922577    -0.10600
C2197       C  0.25865313  0.87089523  0.26845378    -0.11500
C2198       C  0.26093454  0.87893601  0.27796848     0.20000
C2199       C  0.25344186  0.87891786  0.28817552    -0.13500
C2200       C  0.24382643  0.87075326  0.28894694    -0.11800
C2201       C  0.27129018  0.88677862  0.27749220     0.01000
C2202       C  0.28033618  0.89283475  0.27725083    -0.31800
C2203       C  0.23226773  0.85367524  0.28064625     0.02400
C2204       C  0.22469509  0.84592945  0.28175246    -0.33500
H2205       H  0.24747884  0.85642129  0.26190186     0.13400
H2206       H  0.26442031  0.87080078  0.26054223     0.13300
H2207       H  0.25515373  0.88506279  0.29560521     0.13100
H2208       H  0.23820523  0.87068037  0.29696354     0.12100
C2209       C  0.97960238  0.27045902  0.89499779     0.18500
C2210       C  0.99139253  0.26909623  0.89061546    -0.10600
C2211       C  0.99678143  0.25766937  0.89040187    -0.11500
C2212       C  0.99039650  0.24756787  0.89457568     0.20000
C2213       C  0.97861754  0.24893307  0.89899943    -0.13500
C2214       C  0.97322669  0.26036361  0.89921261    -0.11800
C2215       C  0.99591764  0.23581042  0.89433378     0.01000
C2216       C  0.00039525  0.22588753  0.89425159    -0.31800
C2217       C  0.97405895  0.28220757  0.89510912     0.02400
C2218       C  0.96953583  0.29210988  0.89515072    -0.33500
H2219       H  0.99639789  0.27685287  0.88734661     0.13400
H2220       H  0.00589778  0.25670812  0.88697737     0.13300
H2221       H  0.97361144  0.24117353  0.90226087     0.13100
H2222       H  0.96410726  0.26132630  0.90262917     0.12100
C2223       C  0.02370308  0.11057120  0.98005833     0.18500
C2224       C  0.01229965  0.11238636  0.97487438    -0.10600
C2225       C  0.01094689  0.12037593  0.96517186    -0.11500
C2226       C  0.02099174  0.12658401  0.96062282     0.20000
C2227       C  0.03239799  0.12476686  0.96580024    -0.13500
C2228       C  0.03375107  0.11677628  0.97550334    -0.11800
C2229       C  0.01965527  0.13460010  0.95047933     0.01000
C2230       C  0.01876508  0.14100017  0.94171447    -0.31800
C2231       C  0.02509901  0.10226394  0.98996523     0.02400
C2232       C  0.02621007  0.09516144  0.99815160    -0.33500
H2233       H  0.00447874  0.10760607  0.97830609     0.13400
H2234       H  0.00209935  0.12167364  0.96119342     0.13300
H2235       H  0.04023352  0.12948077  0.96230892     0.13100
H2236       H  0.04261491  0.11541102  0.97942311     0.12100
C2237       C  0.88647657  0.00669787  0.25425523     0.18500
C2238       C  0.87797493  0.01556808  0.25115815    -0.10600
C2239       C  0.87780786  0.02039722  0.23945782    -0.11500
C2240       C  0.88614396  0.01637902  0.23080664     0.20000
C2241       C  0.89465125  0.00753137  0.23392210    -0.13500
C2242       C  0.89481795  0.00270761  0.24560902    -0.11800
C2243       C  0.88591445  0.02118783  0.21869960     0.01000
C2244       C  0.88579357  0.02491427  0.20844725    -0.31800
C2245       C  0.88661025  0.00160603  0.26624483     0.02400
C2246       C  0.88679688  0.99716887  0.27620729    -0.33500
H2247       H  0.87147156  0.01871507  0.25776228     0.13400
H2248       H  0.87117202  0.02721851  0.23715077     0.13300
H2249       H  0.90112428  0.00433828  0.22730972     0.13100
H2250       H  0.90142263  0.99584724  0.24789136     0.12100
C2251       C  0.97081019  0.04672224  0.09268760     0.18500
C2252       C  0.96398440  0.05669879  0.09647828    -0.10600
C2253       C  0.95402879  0.05504268  0.10409889    -0.11500
C2254       C  0.95084363  0.04340221  0.10797290     0.20000
C2255       C  0.95770780  0.03343629  0.10423294    -0.13500
C2256       C  0.96766307  0.03509242  0.09661328    -0.11800
C2257       C  0.94043207  0.04168742  0.11561035     0.01000
C2258       C  0.93153874  0.04051119  0.12181035    -0.31800
C2259       C  0.98087048  0.04837538  0.08458184     0.02400
C2260       C  0.98912119  0.04966972  0.07757031    -0.33500
H2261       H  0.96630788  0.06573047  0.09348424     0.13400
H2262       H  0.94877964  0.06281783  0.10690898     0.13300
H2263       H  0.95532491  0.02439444  0.10714552     0.13100
H2264       H  0.97285243  0.02730706  0.09372272     0.12100
C2265       C  0.24729375  0.90885219  0.98662087     0.18500
C2266       C  0.23892817  0.89966111  0.98419625    -0.10600
C2267       C  0.22727319  0.90026605  0.98905500    -0.11500
C2268       C  0.22391962  0.91005985  0.99636188     0.20000
C2269       C  0.23228254  0.91925852  0.99877624    -0.13500
C2270       C  0.24393773  0.91865358  0.99391733    -0.11800
C2271       C  0.21189698  0.91065577  0.00132216     0.01000
C2272       C  0.20175014  0.91095327  0.00529463    -0.31800
C2273       C  0.25933932  0.90821695  0.98172848     0.02400
C2274       C  0.26953651  0.90794494  0.97789136    -0.33500
H2275       H  0.24141639  0.89203608  0.97857772     0.13400
H2276       H  0.22088324  0.89310431  0.98712032     0.13300
H2277       H  0.22979865  0.92687806  0.00440422     0.13100
H2278       H  0.25033208  0.92580931  0.99586119     0.12100
C2279       C  0.11359677  0.85005298  0.06271704     0.18500
C2280       C  0.12026396  0.84278282  0.07064898    -0.10600
C2281       C  0.11431272  0.83552130  0.07910505    -0.11500
C2282       C  0.10167059  0.83550541  0.07966617     0.20000
C2283       C  0.09499206  0.84266696  0.07164096    -0.13500
C2284       C  0.10094596  0.84993115  0.06318041    -0.11800
C2285       C  0.09561750  0.82853472  0.08881139     0.01000
C2286       C  0.09089955  0.82303865  0.09693979    -0.31800
C2287       C  0.11972163  0.85811771  0.05456714     0.02400
C2288       C  0.12459404  0.86552719  0.04824501    -0.33500
H2289       H  0.13004715  0.84287576  0.07042468     0.13400
H2290       H  0.11956102  0.83006584  0.08531616     0.13300
H2291       H  0.08521461  0.84277004  0.07204497     0.13100
H2292       H  0.09570610  0.85558666  0.05714390     0.12100
C2293       C  0.08620499  0.99702240  0.03071705     0.18500
C2294       C  0.09007451  0.98997035  0.04050224    -0.10600
C2295       C  0.09814955  0.98042133  0.03863110    -0.11500
C2296       C  0.10240039  0.97788317  0.02697022     0.20000
C2297       C  0.09853064  0.98493175  0.01718613    -0.13500
C2298       C  0.09045559  0.99448196  0.01905749    -0.11800
C2299       C  0.11052192  0.96789780  0.02504887     0.01000
C2300       C  0.11697245  0.95920473  0.02378076    -0.31800
C2301       C  0.07778416  0.00676975  0.03259775     0.02400
C2302       C  0.07060290  0.01485233  0.03399269    -0.33500
H2303       H  0.08682427  0.99182624  0.04955007     0.13400
H2304       H  0.10103867  0.97499438  0.04625662     0.13300
H2305       H  0.10171283  0.98301872  0.00812695     0.13100
H2306       H  0.08749833  0.99985313  0.01141968     0.12100
C2307       C  0.47581335  0.24816116  0.64304828     0.18500
C2308       C  0.47939849  0.25591431  0.63369532    -0.10600
C2309       C  0.49091589  0.26111404  0.63384069    -0.11500
C2310       C  0.49889772  0.25858829  0.64334181     0.20000
C2311       C  0.49534945  0.25075317  0.65264135    -0.13500
C2312       C  0.48383256  0.24555362  0.65249592    -0.11800
C2313       C  0.51061616  0.26422205  0.64367912     0.01000
C2314       C  0.52034896  0.26909765  0.64409239    -0.31800
C2315       C  0.46381811  0.24313730  0.64312026     0.02400
C2316       C  0.45367387  0.23918331  0.64342205    -0.33500
H2317       H  0.47326343  0.25801599  0.62636080     0.13400
H2318       H  0.49355706  0.26717148  0.62661197     0.13300
H2319       H  0.50143924  0.24874896  0.66004079     0.13100
H2320       H  0.48114677  0.23959405  0.65978943     0.12100
C2321       C  0.33758260  0.22498790  0.73122987     0.18500
C2322       C  0.33786332  0.23511154  0.72362756    -0.10600
C2323       C  0.34648720  0.23587373  0.71443329    -0.11500
C2324       C  0.35486553  0.22652291  0.71281839     0.20000
C2325       C  0.35468163  0.21646471  0.72051580    -0.13500
C2326       C  0.34605541  0.21570285  0.72971414    -0.11800
C2327       C  0.36320337  0.22696318  0.70287300     0.01000
C2328       C  0.36958529  0.22703629  0.69405909    -0.31800
C2329       C  0.32837181  0.22395206  0.74032202     0.02400
C2330       C  0.32046056  0.22293002  0.74772084    -0.33500
H2331       H  0.33132564  0.24232044  0.72470381     0.13400
H2332       H  0.34650697  0.24365129  0.70847716     0.13300
H2333       H  0.36107256  0.20914931  0.71929091     0.13100
H2334       H  0.34588608  0.20781896  0.73552594     0.12100
C2335       C  0.22533055  0.35877940  0.00617535     0.18500
C2336       C  0.22134275  0.35041907  0.99752875    -0.10600
C2337       C  0.22676359  0.35000946  0.98610127    -0.11500
C2338       C  0.23620843  0.35795324  0.98325025     0.20000
C2339       C  0.24011628  0.36639159  0.99185686    -0.13500
C2340       C  0.23469556  0.36680134  0.00328356    -0.11800
C2341       C  0.24195014  0.35737167  0.97155664     0.01000
C2342       C  0.24674458  0.35685462  0.96176483    -0.31800
C2343       C  0.22008338  0.35887903  0.01811170     0.02400
C2344       C  0.21599806  0.35870271  0.02823108    -0.33500
H2345       H  0.21412986  0.34415382  0.99965643     0.13400
H2346       H  0.22365195  0.34345074  0.97952735     0.13300
H2347       H  0.24739937  0.37258716  0.98976544     0.13100
H2348       H  0.23787751  0.37329041  0.00989281     0.12100
C2349       C  0.27172951  0.27050301  0.84589416     0.18500
C2350       C  0.27402620  0.26746361  0.85798238    -0.10600
C2351       C  0.27354941  0.27637790  0.86695905    -0.11500
C2352       C  0.27076971  0.28834916  0.86386649     0.20000
C2353       C  0.26840564  0.29134843  0.85179304    -0.13500
C2354       C  0.26888283  0.28245451  0.84283654    -0.11800
C2355       C  0.27062141  0.29768286  0.87293314     0.01000
C2356       C  0.27067698  0.30610831  0.87984792    -0.31800
C2357       C  0.27246700  0.26147101  0.83655702     0.02400
C2358       C  0.27317118  0.25425368  0.82842128    -0.33500
H2359       H  0.27625640  0.25824976  0.86044399     0.13400
H2360       H  0.27542881  0.27396445  0.87626258     0.13300
H2361       H  0.26628445  0.30057910  0.84929379     0.13100
H2362       H  0.26711231  0.28491070  0.83352139     0.12100
C2363       C  0.13353457  0.02169550  0.74737608     0.18500
C2364       C  0.12532775  0.01918817  0.73806003    -0.10600
C2365       C  0.12503770  0.00768278  0.73280281    -0.11500
C2366       C  0.13295770  0.99866443  0.73685252     0.20000
C2367       C  0.14117672  0.00119980  0.74613608    -0.13500
C2368       C  0.14146512  0.01268482  0.75138521    -0.11800
C2369       C  0.13263485  0.98676017  0.73163260     0.01000
C2370       C  0.13269371  0.97660367  0.72769342    -0.31800
C2371       C  0.13390980  0.03350578  0.75279534     0.02400
C2372       C  0.13448237  0.04337963  0.75735615    -0.33500
H2373       H  0.11916885  0.02610573  0.73488008     0.13400
H2374       H  0.11864454  0.00581448  0.72562948     0.13300
H2375       H  0.14733668  0.99428986  0.74933364     0.13100
H2376       H  0.14785718  0.01453587  0.75856548     0.12100
C2377       C  0.07509591  0.13002687  0.81573103     0.18500
C2378       C  0.06831437  0.12267965  0.82348893    -0.10600
C2379       C  0.06005602  0.12789575  0.83148376    -0.11500
C2380       C  0.05856306  0.14046830  0.83173308     0.20000
C2381       C  0.06524395  0.14780543  0.82387874    -0.13500
C2382       C  0.07350457  0.14258806  0.81588227    -0.11800
C2383       C  0.05058930  0.14585242  0.84042425     0.01000
C2384       C  0.04434712  0.15018599  0.84819701    -0.31800
C2385       C  0.08410828  0.12472910  0.80806689     0.02400
C2386       C  0.09210884  0.12030938  0.80218889    -0.33500
H2387       H  0.06954862  0.11296107  0.82348638     0.13400
H2388       H  0.05497838  0.12215896  0.83758302     0.13300
H2389       H  0.06419851  0.15754334  0.82406633     0.13100
H2390       H  0.07877386  0.14834245  0.80996655     0.12100
C2391       C  0.20489400  0.14082581  0.77722952     0.18500
C2392       C  0.21520239  0.13949782  0.76999731    -0.10600
C2393       C  0.22449084  0.14807175  0.77059100    -0.11500
C2394       C  0.22348831  0.15799429  0.77841344     0.20000
C2395       C  0.21319082  0.15928835  0.78564912    -0.13500
C2396       C  0.20392402  0.15073351  0.78505756    -0.11800
C2397       C  0.23293701  0.16691340  0.77903194     0.01000
C2398       C  0.24054672  0.17466556  0.77987422    -0.31800
C2399       C  0.19517760  0.13220458  0.77656738     0.02400
C2400       C  0.18650072  0.12562075  0.77643651    -0.33500
H2401       H  0.21603448  0.13188579  0.76389199     0.13400
H2402       H  0.23241227  0.14698802  0.76494789     0.13300
H2403       H  0.21231346  0.16692516  0.79172075     0.13100
H2404       H  0.19598415  0.15186601  0.79066895     0.12100
C2405       C  0.48628723  0.74547004  0.39202359     0.18500
C2406       C  0.48897552  0.75371473  0.38278483    -0.10600
C2407       C  0.48408407  0.76538275  0.38306992    -0.11500
C2408       C  0.47648535  0.76884785  0.39259303     0.20000
C2409       C  0.47375512  0.76058068  0.40178957    -0.13500
C2410       C  0.47864127  0.74892458  0.40150466    -0.11800
C2411       C  0.47159094  0.78090214  0.39303338     0.01000
C2412       C  0.46752091  0.79099857  0.39362545    -0.31800
C2413       C  0.49145501  0.73352067  0.39189268     0.02400
C2414       C  0.49573691  0.72349486  0.39209502    -0.33500
H2415       H  0.49488097  0.75114531  0.37541209     0.13400
H2416       H  0.48626289  0.77170414  0.37591327     0.13300
H2417       H  0.46789923  0.76316183  0.40919853     0.13100
H2418       H  0.47650526  0.74262958  0.40869811     0.12100
C2419       C  0.40623809  0.87819978  0.33684773     0.18500
C2420       C  0.40345352  0.89050240  0.33798569    -0.10600
C2421       C  0.39550519  0.89597873  0.32983720    -0.11500
C2422       C  0.39030863  0.88917615  0.32051231     0.20000
C2423       C  0.39321980  0.87690753  0.31926484    -0.13500
C2424       C  0.40117552  0.87142617  0.32742072    -0.11800
C2425       C  0.38155870  0.89464924  0.31261421     0.01000
C2426       C  0.37376578  0.89910862  0.30645588    -0.31800
C2427       C  0.41397223  0.87249089  0.34559595     0.02400
C2428       C  0.42018997  0.86793718  0.35328942    -0.33500
H2429       H  0.40729497  0.89581245  0.34526296     0.13400
H2430       H  0.39327121  0.90545480  0.33091553     0.13300
H2431       H  0.38920528  0.87155253  0.31211637     0.13100
H2432       H  0.40324550  0.86189921  0.32647988     0.12100
C2433       C  0.44624775  0.90283450  0.48486233     0.18500
C2434       C  0.45660323  0.90371623  0.47764243    -0.10600
C2435       C  0.45826006  0.89578030  0.46795165    -0.11500
C2436       C  0.44957101  0.88692677  0.46544644     0.20000
C2437       C  0.43931000  0.88590641  0.47279146    -0.13500
C2438       C  0.43765157  0.89384857  0.48248855    -0.11800
C2439       C  0.45086114  0.87935890  0.45495927     0.01000
C2440       C  0.45157730  0.87354267  0.44578086    -0.31800
C2441       C  0.44425043  0.91145449  0.49438118     0.02400
C2442       C  0.44261112  0.91904395  0.50201607    -0.33500
H2443       H  0.46328591  0.91065593  0.47938239     0.13400
H2444       H  0.46619408  0.89668490  0.46229048     0.13300
H2445       H  0.43250659  0.87912898  0.47089218     0.13100
H2446       H  0.42959488  0.89311370  0.48799795     0.12100
C2447       C  0.22108607  0.10882762  0.48618333     0.18500
C2448       C  0.22314107  0.10284278  0.49716069    -0.10600
C2449       C  0.23467097  0.10287746  0.50234194    -0.11500
C2450       C  0.24420052  0.10889680  0.49657222     0.20000
C2451       C  0.24213859  0.11489759  0.48560752    -0.13500
C2452       C  0.23060998  0.11486309  0.48042696    -0.11800
C2453       C  0.25611919  0.10874524  0.50179109     0.01000
C2454       C  0.26614107  0.10836759  0.50605165    -0.31800
C2455       C  0.20924038  0.10871861  0.48080085     0.02400
C2456       C  0.19931326  0.10851438  0.47631349    -0.33500
H2457       H  0.21585085  0.09813381  0.50168650     0.13400
H2458       H  0.23616433  0.09818135  0.51080729     0.13300
H2459       H  0.24944184  0.11955512  0.48105038     0.13100
H2460       H  0.22913096  0.11950797  0.47193117     0.12100
C2461       C  0.36538186  0.17832930  0.58693933     0.18500
C2462       C  0.37194972  0.17215691  0.57804681    -0.10600
C2463       C  0.36596871  0.16462902  0.56983519    -0.11500
C2464       C  0.35340048  0.16325370  0.57048528     0.20000
C2465       C  0.34683039  0.16950426  0.57931532    -0.13500
C2466       C  0.35280768  0.17702769  0.58752176    -0.11800
C2467       C  0.34731050  0.15510355  0.56238756     0.01000
C2468       C  0.34244149  0.14783544  0.55589707    -0.31800
C2469       C  0.37152250  0.18578522  0.59564274     0.02400
C2470       C  0.37636463  0.19190165  0.60324389    -0.33500
H2471       H  0.38167796  0.17307671  0.57753496     0.13400
H2472       H  0.37114288  0.15979387  0.56307394     0.13300
H2473       H  0.33711976  0.16846472  0.57993204     0.13100
H2474       H  0.34764715  0.18173749  0.59438201     0.12100
C2475       C  0.36292289  0.03731798  0.52558177     0.18500
C2476       C  0.36801376  0.03454854  0.53683595    -0.10600
C2477       C  0.37635779  0.02513089  0.53785097    -0.11500
C2478       C  0.37965017  0.01845159  0.52761621     0.20000
C2479       C  0.37452067  0.02117379  0.51636246    -0.13500
C2480       C  0.36616558  0.03060532  0.51534586    -0.11800
C2481       C  0.38842440  0.00894654  0.52870151     0.01000
C2482       C  0.39593330  0.00118944  0.53004482    -0.31800
C2483       C  0.35473116  0.04733340  0.52451827     0.02400
C2484       C  0.34840519  0.05617116  0.52399913    -0.33500
H2485       H  0.36561413  0.03973312  0.54479153     0.13400
H2486       H  0.38030003  0.02311105  0.54658558     0.13300
H2487       H  0.37703594  0.01607424  0.50838984     0.13100
H2488       H  0.36232483  0.03272729  0.50659239     0.12100
C2489       C  0.58091387  0.00781445  0.75656643     0.18500
C2490       C  0.56996611  0.00577476  0.75054576    -0.10600
C2491       C  0.56993160  0.00069905  0.73896081    -0.11500
C2492       C  0.58084485  0.99762558  0.73332756     0.20000
C2493       C  0.59179392  0.99957660  0.73938455    -0.13500
C2494       C  0.59182839  0.00465574  0.75097680    -0.11800
C2495       C  0.58079360  0.99271088  0.72125782     0.01000
C2496       C  0.58061256  0.98885849  0.71105135    -0.31800
C2497       C  0.58092716  0.01328524  0.76839110     0.02400
C2498       C  0.58075968  0.01795427  0.77824832    -0.33500
H2499       H  0.56147106  0.00817824  0.75477206     0.13400
H2500       H  0.56141216  0.99924981  0.73436778     0.13300
H2501       H  0.60029075  0.99725236  0.73511915     0.13100
H2502       H  0.60034899  0.00618866  0.75553964     0.12100
C2503       C  0.65776256  0.91742655  0.61122488     0.18500
C2504       C  0.65936687  0.92053432  0.62340448    -0.10600
C2505       C  0.65133320  0.92852746  0.62902780    -0.11500
C2506       C  0.64166238  0.93344029  0.62249141     0.20000
C2507       C  0.64017384  0.93046622  0.61026955    -0.13500
C2508       C  0.64819825  0.92248007  0.60465258    -0.11800
C2509       C  0.63294300  0.94109441  0.62839200     0.01000
C2510       C  0.62511598  0.94708162  0.63305056    -0.31800
C2511       C  0.66559582  0.90868259  0.60560633     0.02400
C2512       C  0.67178898  0.90095734  0.60104874    -0.33500
H2513       H  0.66670460  0.91664419  0.62858834     0.13400
H2514       H  0.65254818  0.93072404  0.63849315     0.13300
H2515       H  0.63270423  0.93417133  0.60513896     0.13100
H2516       H  0.64684027  0.92010813  0.59524892     0.12100
C2517       C  0.49193396  0.97101916  0.59676474     0.18500
C2518       C  0.50088716  0.97980337  0.59505080    -0.10600
C2519       C  0.51069498  0.98047887  0.60299007    -0.11500
C2520       C  0.51160323  0.97237621  0.61268572     0.20000
C2521       C  0.50259483  0.96365355  0.61446481    -0.13500
C2522       C  0.49277971  0.96297810  0.60652010    -0.11800
C2523       C  0.52196129  0.97281181  0.62055291     0.01000
C2524       C  0.53094243  0.97312148  0.62671893    -0.31800
C2525       C  0.48213584  0.96998969  0.58827083     0.02400
C2526       C  0.47425197  0.96886957  0.58083583    -0.33500
H2527       H  0.50035496  0.98603262  0.58751045     0.13400
H2528       H  0.51762715  0.98722884  0.60149850     0.13300
H2529       H  0.50322321  0.95731172  0.62190167     0.13100
H2530       H  0.48593552  0.95611612  0.60790094     0.12100
C2531       C  0.63548880  0.51591350  0.25407221     0.18500
C2532       C  0.62432713  0.51040846  0.25175114    -0.10600
C2533       C  0.62390242  0.49880183  0.24674571    -0.11500
C2534       C  0.63464068  0.49266704  0.24404515     0.20000
C2535       C  0.64579453  0.49813840  0.24645326    -0.13500
C2536       C  0.64621898  0.50973764  0.25145416    -0.11800
C2537       C  0.63426379  0.48085299  0.23862849     0.01000
C2538       C  0.63425882  0.47101801  0.23394541    -0.31800
C2539       C  0.63593761  0.52797644  0.25890875     0.02400
C2540       C  0.63626370  0.53817343  0.26273094    -0.33500
H2541       H  0.61597533  0.51511524  0.25372839     0.13400
H2542       H  0.61522981  0.49465528  0.24491022     0.13300
H2543       H  0.65414969  0.49347392  0.24438950     0.13100
H2544       H  0.65489489  0.51391750  0.25319765     0.12100
C2545       C  0.72256124  0.35977099  0.20163885     0.18500
C2546       C  0.71737184  0.36569802  0.19172793    -0.10600
C2547       C  0.70753501  0.37343641  0.19343385    -0.11500
C2548       C  0.70285962  0.37527848  0.20505691     0.20000
C2549       C  0.70805708  0.36936228  0.21497083    -0.13500
C2550       C  0.71789633  0.36162279  0.21326464    -0.11800
C2551       C  0.69257725  0.38303127  0.20674536     0.01000
C2552       C  0.68371850  0.38925595  0.20784108    -0.31800
C2553       C  0.73260516  0.35172793  0.19987647     0.02400
C2554       C  0.74095926  0.34489634  0.19847136    -0.33500
H2555       H  0.72090029  0.36430810  0.18269874     0.13400
H2556       H  0.70354749  0.37793407  0.18570277     0.13300
H2557       H  0.70447701  0.37069077  0.22398812     0.13100
H2558       H  0.72183492  0.35706243  0.22098343     0.12100
C2559       C  0.72689480  0.15622952  0.98131549     0.18500
C2560       C  0.71991679  0.15345903  0.99151661    -0.10600
C2561       C  0.72514270  0.15366883  0.00303881    -0.11500
C2562       C  0.73737127  0.15664828  0.00442081     0.20000
C2563       C  0.74436381  0.15934104  0.99421267    -0.13500
C2564       C  0.73914041  0.15913053  0.98269535    -0.11800
C2565       C  0.74268202  0.15711472  0.01630902     0.01000
C2566       C  0.74699585  0.15764940  0.02631373    -0.31800
C2567       C  0.72149242  0.15630719  0.96945734     0.02400
C2568       C  0.71721049  0.15664084  0.95942827    -0.33500
H2569       H  0.71043914  0.15121424  0.99057125     0.13400
H2570       H  0.71964225  0.15158074  0.01086342     0.13300
H2571       H  0.75382158  0.16166805  0.99516247     0.13100
H2572       H  0.74462431  0.16130040  0.97488113     0.12100
C2573       C  0.82129326  0.08194034  0.12411399     0.18500
C2574       C  0.81956533  0.08242255  0.11157464    -0.10600
C2575       C  0.81133489  0.09063768  0.10660596    -0.11500
C2576       C  0.80478230  0.09842318  0.11414566     0.20000
C2577       C  0.80638448  0.09782922  0.12670299    -0.13500
C2578       C  0.81462034  0.08960791  0.13167515    -0.11800
C2579       C  0.79683887  0.10735453  0.10895463     0.01000
C2580       C  0.79066498  0.11517894  0.10451541    -0.31800
C2581       C  0.83026671  0.07394829  0.12914087     0.02400
C2582       C  0.83820479  0.06761106  0.13310895    -0.33500
H2583       H  0.82470632  0.07657799  0.10563334     0.13400
H2584       H  0.81021581  0.09104483  0.09688600     0.13300
H2585       H  0.80141015  0.10383554  0.13262424     0.13100
H2586       H  0.81591263  0.08935452  0.14137858     0.12100
C2587       C  0.77665112  0.25003053  0.13563761     0.18500
C2588       C  0.78606412  0.24180958  0.13362191    -0.10600
C2589       C  0.78432228  0.23192313  0.12593522    -0.11500
C2590       C  0.77315823  0.23020355  0.12022036     0.20000
C2591       C  0.76379404  0.23852150  0.12209384    -0.13500
C2592       C  0.76553750  0.24841609  0.12978630    -0.11800
C2593       C  0.77120081  0.21965042  0.11284809     0.01000
C2594       C  0.76972569  0.21046542  0.10715841    -0.31800
C2595       C  0.77827715  0.25985141  0.14402810     0.02400
C2596       C  0.77956265  0.26781348  0.15136463    -0.33500
H2597       H  0.79468240  0.24294963  0.13811727     0.13400
H2598       H  0.79161546  0.22553176  0.12458491     0.13300
H2599       H  0.75511391  0.23726486  0.11775368     0.13100
H2600       H  0.75818443  0.25470056  0.13129907     0.12100
C2601       C  0.97311395  0.27003382  0.34162019     0.18500
C2602       C  0.98061537  0.27269910  0.35147566    -0.10600
C2603       C  0.99254550  0.26850363  0.35168113    -0.11500
C2604       C  0.99703102  0.26162639  0.34203103     0.20000
C2605       C  0.98953417  0.25898812  0.33217263    -0.13500
C2606       C  0.97761329  0.26318018  0.33196737    -0.11800
C2607       C  0.00927395  0.25720179  0.34225518     0.01000
C2608       C  0.01946730  0.25333900  0.34235242    -0.31800
C2609       C  0.96079831  0.27425429  0.34141439     0.02400
C2610       C  0.95045769  0.27769739  0.34117430    -0.33500
H2611       H  0.97723905  0.27798636  0.35899522     0.13400
H2612       H  0.99825135  0.27059423  0.35935683     0.13300
H2613       H  0.99289443  0.25367361  0.32466477     0.13100
H2614       H  0.97190272  0.26105811  0.32430366     0.12100
C2615       C  0.83619130  0.29930661  0.25324460     0.18500
C2616       C  0.84783494  0.30426152  0.25298126    -0.10600
C2617       C  0.85541000  0.30316625  0.26304678    -0.11500
C2618       C  0.85137488  0.29710902  0.27341376     0.20000
C2619       C  0.83971023  0.29220159  0.27369154    -0.13500
C2620       C  0.83213848  0.29329622  0.26362998    -0.11800
C2621       C  0.85914321  0.29601766  0.28379654     0.01000
C2622       C  0.86544302  0.29525781  0.29265773    -0.31800
C2623       C  0.82835671  0.30044858  0.24292417     0.02400
C2624       C  0.82153479  0.30143986  0.23448825    -0.33500
H2625       H  0.85104634  0.30896345  0.24501403     0.13400
H2626       H  0.86439346  0.30703603  0.26274981     0.13300
H2627       H  0.83647634  0.28754103  0.28167372     0.13100
H2628       H  0.82313770  0.28946714  0.26394735     0.12100
C2629       C  0.38433612  0.50874259  0.72958464     0.18500
C2630       C  0.39411172  0.50178462  0.73363338    -0.10600
C2631       C  0.39386609  0.49659580  0.74516587    -0.11500
C2632       C  0.38384159  0.49833752  0.75270056     0.20000
C2633       C  0.37405757  0.50527440  0.74864238    -0.13500
C2634       C  0.37430322  0.51046288  0.73711114    -0.11800
C2635       C  0.38369403  0.49320188  0.76466044     0.01000
C2636       C  0.38374234  0.48915154  0.77478127    -0.31800
C2637       C  0.38461319  0.51414821  0.71774430     0.02400
C2638       C  0.38486242  0.51870015  0.70784000    -0.33500
H2639       H  0.40192139  0.50040091  0.72789574     0.13400
H2640       H  0.40149518  0.49127747  0.74822131     0.13300
H2641       H  0.36627396  0.50670851  0.75440273     0.13100
H2642       H  0.36669991  0.51583140  0.73408007     0.12100
C2643       C  0.30924885  0.41741364  0.87689497     0.18500
C2644       C  0.30937838  0.41794127  0.86423816    -0.10600
C2645       C  0.31676023  0.42631644  0.85831067    -0.11500
C2646       C  0.32404780  0.43420519  0.86501087     0.20000
C2647       C  0.32381132  0.43378260  0.87767171    -0.13500
C2648       C  0.31642652  0.42540372  0.88360185    -0.11800
C2649       C  0.33222239  0.44227407  0.85890820     0.01000
C2650       C  0.33963977  0.44852653  0.85395355    -0.31800
C2651       C  0.30213387  0.40834925  0.88294251     0.02400
C2652       C  0.29652112  0.40030005  0.88768756    -0.33500
H2653       H  0.30391318  0.41176669  0.85895954     0.13400
H2654       H  0.31692974  0.42651075  0.84852041     0.13300
H2655       H  0.32946897  0.43978842  0.88294231     0.13100
H2656       H  0.31644552  0.42503666  0.89338832     0.12100
C2657       C  0.47229954  0.47093728  0.88874358     0.18500
C2658       C  0.46737541  0.46044543  0.88364247    -0.10600
C2659       C  0.45761694  0.46128176  0.87566299    -0.11500
C2660       C  0.45275753  0.47261260  0.87275636     0.20000
C2661       C  0.45778381  0.48311209  0.87773700    -0.13500
C2662       C  0.46754114  0.48227587  0.88571465    -0.11800
C2663       C  0.44234297  0.47342999  0.86503783     0.01000
C2664       C  0.43332314  0.47400116  0.85897557    -0.31800
C2665       C  0.48192183  0.47004955  0.89742066     0.02400
C2666       C  0.48968737  0.46932065  0.90500995    -0.33500
H2667       H  0.47096752  0.45163139  0.88595772     0.13400
H2668       H  0.45376582  0.45310494  0.87189290     0.13300
H2669       H  0.45406353  0.49191256  0.87558080     0.13100
H2670       H  0.47126256  0.49043899  0.88964144     0.12100
C2671       C  0.48117821  0.24637152  0.09254050     0.18500
C2672       C  0.49050083  0.24969103  0.10044187    -0.10600
C2673       C  0.49551843  0.26129157  0.09981545    -0.11500
C2674       C  0.49124002  0.26962381  0.09127986     0.20000
C2675       C  0.48190847  0.26630352  0.08339375    -0.13500
C2676       C  0.47689399  0.25471056  0.08401992    -0.11800
C2677       C  0.49640566  0.28156247  0.09058545     0.01000
C2678       C  0.50061520  0.29160227  0.08990537    -0.31800
C2679       C  0.47607947  0.23439789  0.09307017     0.02400
C2680       C  0.47179081  0.22437160  0.09322036    -0.33500
H2681       H  0.49389872  0.24331561  0.10705531     0.13400
H2682       H  0.50272854  0.26375410  0.10596018     0.13300
H2683       H  0.47852614  0.27266490  0.07675817     0.13100
H2684       H  0.46970372  0.25224342  0.07785303     0.12100
C2685       C  0.57512609  0.39087486  0.16432702     0.18500
C2686       C  0.56449458  0.39681416  0.16086248    -0.10600
C2687       C  0.55647713  0.39124291  0.15281817    -0.11500
C2688       C  0.55906710  0.37971721  0.14822684     0.20000
C2689       C  0.56967571  0.37377804  0.15173229    -0.13500
C2690       C  0.57767964  0.37933985  0.15976165    -0.11800
C2691       C  0.55109792  0.37412777  0.13960481     0.01000
C2692       C  0.54491690  0.36948894  0.13192836    -0.31800
C2693       C  0.58355502  0.39659556  0.17240810     0.02400
C2694       C  0.59116374  0.40082145  0.17895528    -0.33500
H2695       H  0.56244922  0.40574960  0.16431113     0.13400
H2696       H  0.54833003  0.39594465  0.15011149     0.13300
H2697       H  0.57180230  0.36489785  0.14818660     0.13100
H2698       H  0.58589119  0.37468159  0.16235281     0.12100
C2699       C  0.52266016  0.38783331  0.01833304     0.18500
C2700       C  0.53367154  0.38940460  0.01228630    -0.10600
C2701       C  0.53465569  0.39798199  0.00304322    -0.11500
C2702       C  0.52463674  0.40502407  0.99982891     0.20000
C2703       C  0.51359128  0.40333786  0.00576906    -0.13500
C2704       C  0.51260770  0.39476660  0.01500496    -0.11800
C2705       C  0.52575067  0.41422646  0.99070858     0.01000
C2706       C  0.52655297  0.42217614  0.98330300    -0.31800
C2707       C  0.52181877  0.37957835  0.02834845     0.02400
C2708       C  0.52123079  0.37327889  0.03721862    -0.33500
H2709       H  0.54151966  0.38413928  0.01483492     0.13400
H2710       H  0.54324737  0.39923463  0.99852492     0.13300
H2711       H  0.50579787  0.40875497  0.00337327     0.13100
H2712       H  0.50407115  0.39367382  0.01966732     0.12100
C2713       C  0.74547266  0.60960577  0.99795457     0.18500
C2714       C  0.73996052  0.59853695  0.99520631    -0.10600
C2715       C  0.72838576  0.59830748  0.99014524    -0.11500
C2716       C  0.72226598  0.60914680  0.98780732     0.20000
C2717       C  0.72779751  0.62022006  0.99050657    -0.13500
C2718       C  0.73937690  0.62044961  0.99557024    -0.11800
C2719       C  0.71030100  0.60890326  0.98271214     0.01000
C2720       C  0.70026767  0.60871974  0.97847333    -0.31800
C2721       C  0.75735663  0.60979475  0.00323393     0.02400
C2722       C  0.76732496  0.60961695  0.00762027    -0.33500
H2723       H  0.74459571  0.59009779  0.99699978     0.13400
H2724       H  0.72420177  0.58969437  0.98808861     0.13300
H2725       H  0.72315232  0.62865629  0.98872925     0.13100
H2726       H  0.74355649  0.62905947  0.99764635     0.12100
C2727       C  0.60559782  0.68924446  0.90254425     0.18500
C2728       C  0.61811793  0.68752682  0.90179321    -0.10600
C2729       C  0.62383785  0.67914972  0.90934929    -0.11500
C2730       C  0.61706104  0.67245391  0.91769206     0.20000
C2731       C  0.60458631  0.67438556  0.91864206    -0.13500
C2732       C  0.59886695  0.68275906  0.91108516    -0.11800
C2733       C  0.62274525  0.66312930  0.92478162     0.01000
C2734       C  0.62712221  0.65483321  0.93034221    -0.31800
C2735       C  0.59958392  0.69703610  0.89402704     0.02400
C2736       C  0.59467055  0.70294567  0.88629640    -0.33500
H2737       H  0.62340403  0.69244795  0.89518195     0.13400
H2738       H  0.63347848  0.67770168  0.90850093     0.13300
H2739       H  0.59924857  0.66922760  0.92502703     0.13100
H2740       H  0.58917612  0.68396667  0.91170696     0.12100
C2741       C  0.58335878  0.52438528  0.95533024     0.18500
C2742       C  0.59501187  0.52302239  0.95058297    -0.10600
C2743       C  0.60343011  0.53238440  0.95170603    -0.11500
C2744       C  0.60022177  0.54313360  0.95758793     0.20000
C2745       C  0.58858072  0.54447370  0.96236653    -0.13500
C2746       C  0.58016757  0.53511782  0.96124343    -0.11800
C2747       C  0.60870862  0.55294484  0.95839062     0.01000
C2748       C  0.61542371  0.56151145  0.95871545    -0.31800
C2749       C  0.57464040  0.51483579  0.95405332     0.02400
C2750       C  0.56724070  0.50692725  0.95295439    -0.33500
H2751       H  0.59756159  0.51476464  0.94597435     0.13400
H2752       H  0.61238797  0.53128029  0.94792599     0.13300
H2753       H  0.58598895  0.55277296  0.96687777     0.13100
H2754       H  0.57117397  0.53627039  0.96492626     0.12100
C2755       C  0.72127192  0.40887491  0.49671307     0.18500
C2756       C  0.72802260  0.39817693  0.49724885    -0.10600
C2757       C  0.74005752  0.39811087  0.49344074    -0.11500
C2758       C  0.74537323  0.40874395  0.48908750     0.20000
C2759       C  0.73863012  0.41944909  0.48857084    -0.13500
C2760       C  0.72659330  0.41951507  0.49237909    -0.11800
C2761       C  0.75771063  0.40865367  0.48507815     0.01000
C2762       C  0.76801933  0.40862255  0.48162227    -0.31800
C2763       C  0.70888590  0.40891303  0.50057391     0.02400
C2764       C  0.69850306  0.40886031  0.50380259    -0.33500
H2765       H  0.72398111  0.38990293  0.50058591     0.13400
H2766       H  0.74520019  0.38978755  0.49386593     0.13300
H2767       H  0.74266520  0.42771634  0.48520923     0.13100
H2768       H  0.72144189  0.42783174  0.49192933     0.12100
C2769       C  0.86383115  0.33229015  0.40451063     0.18500
C2770       C  0.85139797  0.33166180  0.40678529    -0.10600
C2771       C  0.84610404  0.33949285  0.41517495    -0.11500
C2772       C  0.85323328  0.34796661  0.42130792     0.20000
C2773       C  0.86569496  0.34845168  0.41917970    -0.13500
C2774       C  0.87098507  0.34062667  0.41079534    -0.11800
C2775       C  0.84772121  0.35659087  0.42929881     0.01000
C2776       C  0.84335933  0.36438116  0.43552083    -0.31800
C2777       C  0.86914496  0.32484660  0.39529014     0.02400
C2778       C  0.87351729  0.31912618  0.38712881    -0.33500
H2779       H  0.84578058  0.32528627  0.40192213     0.13400
H2780       H  0.83644792  0.33909294  0.41671364     0.13300
H2781       H  0.87127223  0.35501818  0.42383139     0.13100
H2782       H  0.88059640  0.34122519  0.40905276     0.12100
C2783       C  0.87660791  0.49961947  0.45280728     0.18500
C2784       C  0.87081870  0.49400176  0.44305131    -0.10600
C2785       C  0.86356204  0.48384373  0.44500628    -0.11500
C2786       C  0.86207196  0.47926819  0.45672207     0.20000
C2787       C  0.86771341  0.48499548  0.46650152    -0.13500
C2788       C  0.87496924  0.49515567  0.46454660    -0.11800
C2789       C  0.85514044  0.46844192  0.45861954     0.01000
C2790       C  0.84966307  0.45912143  0.45991406    -0.31800
C2791       C  0.88462785  0.50962848  0.45073103     0.02400
C2792       C  0.89176794  0.51768201  0.44910032    -0.33500
H2793       H  0.87205990  0.49735807  0.43393429     0.13400
H2794       H  0.85926489  0.47945826  0.43737925     0.13300
H2795       H  0.86664644  0.48150793  0.47559166     0.13100
H2796       H  0.87944023  0.49941281  0.47214655     0.12100
C2797       C  0.08144374  0.50956601  0.23138414     0.18500
C2798       C  0.07059726  0.51089349  0.23777459    -0.10600
C2799       C  0.07075139  0.51489751  0.24976948    -0.11500
C2800       C  0.08175186  0.51759108  0.25542690     0.20000
C2801       C  0.09259261  0.51631103  0.24901968    -0.13500
C2802       C  0.09243851  0.51230702  0.23702615    -0.11800
C2803       C  0.08191634  0.52163485  0.26779642     0.01000
C2804       C  0.08198933  0.52503211  0.27815341    -0.31800
C2805       C  0.08131138  0.50521844  0.21911855     0.02400
C2806       C  0.08124431  0.50138112  0.20891695    -0.33500
H2807       H  0.06204551  0.50878751  0.23350769     0.13400
H2808       H  0.06231320  0.51585889  0.25463554     0.13300
H2809       H  0.10114799  0.51837180  0.25330061     0.13100
H2810       H  0.10088026  0.51130025  0.23217599     0.12100
C2811       C  0.15755282  0.60211216  0.37557566     0.18500
C2812       C  0.15491204  0.59099653  0.38104654    -0.10600
C2813       C  0.14683024  0.58299010  0.37552328    -0.11500
C2814       C  0.14137926  0.58607799  0.36451151     0.20000
C2815       C  0.14406817  0.59716763  0.35902804    -0.13500
C2816       C  0.15213779  0.60516267  0.36454346    -0.11800
C2817       C  0.13277562  0.57806400  0.35897510     0.01000
C2818       C  0.12518829  0.57173877  0.35439724    -0.31800
C2819       C  0.16562512  0.61052405  0.38132272     0.02400
C2820       C  0.17211202  0.61805593  0.38576992    -0.33500
H2821       H  0.15902659  0.58856557  0.38959336     0.13400
H2822       H  0.14476990  0.57445615  0.37986589     0.13300
H2823       H  0.13986347  0.59966540  0.35054360     0.13100
H2824       H  0.15409229  0.61374884  0.36025298     0.12100
C2825       C  0.01412737  0.54193823  0.37679065     0.18500
C2826       C  0.00953518  0.55346910  0.37930547    -0.10600
C2827       C  0.99955418  0.55478003  0.38692689    -0.11500
C2828       C  0.99412279  0.54456778  0.39207374     0.20000
C2829       C  0.99869449  0.53302588  0.38954487    -0.13500
C2830       C  0.00868649  0.53171353  0.38191520    -0.11800
C2831       C  0.98399787  0.54599431  0.40009096     0.01000
C2832       C  0.97568482  0.54747551  0.40696153    -0.31800
C2833       C  0.02455670  0.54066909  0.36914801     0.02400
C2834       C  0.03351244  0.54001052  0.36299763    -0.33500
H2835       H  0.01370376  0.56143699  0.37542585     0.13400
H2836       H  0.99611203  0.56374601  0.38885247     0.13300
H2837       H  0.99458063  0.52507174  0.39350833     0.13100
H2838       H  0.01219735  0.52275983  0.38006292     0.12100
C2839       C  0.99155160  0.76814673  0.59193905     0.18500
C2840       C  0.98444661  0.76462230  0.58206320    -0.10600
C2841       C  0.97936954  0.75304443  0.58171197    -0.11500
C2842       C  0.98137089  0.74493790  0.59123965     0.20000
C2843       C  0.98855452  0.74842912  0.60106711    -0.13500
C2844       C  0.99363134  0.76000754  0.60141862    -0.11800
C2845       C  0.97594408  0.73310781  0.59101532     0.01000
C2846       C  0.97136234  0.72321610  0.59090419    -0.31800
C2847       C  0.99652333  0.78016806  0.59241175     0.02400
C2848       C  0.00039363  0.79035825  0.59260737    -0.33500
H2849       H  0.98277384  0.77084350  0.57468405     0.13400
H2850       H  0.97383561  0.75044425  0.57406561     0.13300
H2851       H  0.99016547  0.74223369  0.60848084     0.13100
H2852       H  0.99910348  0.76263444  0.60909968     0.12100
C2853       C  0.88895941  0.63018896  0.66738190     0.18500
C2854       C  0.89812880  0.62320744  0.66213428    -0.10600
C2855       C  0.90632812  0.62852863  0.65410810    -0.11500
C2856       C  0.90539209  0.64085292  0.65129776     0.20000
C2857       C  0.89631293  0.64785636  0.65666183    -0.13500
C2858       C  0.88811906  0.64253880  0.66468172    -0.11800
C2859       C  0.91336921  0.64619329  0.64250815     0.01000
C2860       C  0.91962089  0.65050556  0.63468877    -0.31800
C2861       C  0.88016272  0.62463887  0.67520092     0.02400
C2862       C  0.87241928  0.62015654  0.68142096    -0.33500
H2863       H  0.89883930  0.61364281  0.66412212     0.13400
H2864       H  0.91327589  0.62300936  0.64996927     0.13300
H2865       H  0.89546449  0.65737469  0.65451295     0.13100
H2866       H  0.88104031  0.64801595  0.66865126     0.12100
C2867       C  0.94163081  0.61219278  0.50194873     0.18500
C2868       C  0.93221676  0.61971759  0.50583053    -0.10600
C2869       C  0.93392178  0.62742643  0.51571240    -0.11500
C2870       C  0.94504697  0.62764442  0.52175385     0.20000
C2871       C  0.95448644  0.62018519  0.51781274    -0.13500
C2872       C  0.95278214  0.61247928  0.50793345    -0.11800
C2873       C  0.94663302  0.63519103  0.53223968     0.01000
C2874       C  0.94770505  0.64114148  0.54131018    -0.31800
C2875       C  0.93980288  0.60401131  0.49199345     0.02400
C2876       C  0.93840652  0.59691470  0.48383865    -0.33500
H2877       H  0.92354942  0.61955183  0.50128966     0.13400
H2878       H  0.92654318  0.63311825  0.51871223     0.13300
H2879       H  0.96310783  0.62024058  0.52244393     0.13100
H2880       H  0.96011558  0.60668022  0.50502663     0.12100
loop_ 
_geom_bond_atom_site_label_1 
_geom_bond_atom_site_label_2 
_geom_bond_distance 
_geom_bond_site_symmetry_2 
_ccdc_geom_bond_type 
N1            N2   1.322       .  A
N1            C5   1.347       .  A
N1           Cu9   2.073       .  S
N2            C3   1.344       .  A
N2           Cu8   2.069       .  S
C3            C4   1.379       .  A
C3            H6   1.082       .  S
C4            C5   1.381       .  A
C4         C2874   1.437       .  S
C5            H7   1.082       .  S
Cu8          N11   2.069       .  S
Cu9          N19   2.073       .  S
Cu10         N12   2.080       .  S
Cu10         N18   2.080       .  S
N11          N12   1.323       .  A
N11          C15   1.344       .  A
N12          C13   1.347       .  A
C13          C14   1.381       .  A
C13          H16   1.082       .  S
C14          C15   1.378       .  A
C14        C2860   1.437       .  S
C15          H17   1.082       .  S
N18          N19   1.324       .  A
N18          C22   1.346       .  A
N19          C20   1.345       .  A
C20          C21   1.378       .  A
C20          H23   1.082       .  S
C21          C22   1.380       .  A
C21        C2846   1.437       .  S
C22          H24   1.082       .  S
N25          N26   1.322       .  A
N25          C29   1.347       .  A
N25         Cu33   2.074       .  S
N26          C27   1.343       .  A
N26         Cu32   2.062       .  S
C27          C28   1.377       .  A
C27          H30   1.082       .  S
C28          C29   1.381       .  A
C28        C2834   1.435       .  S
C29          H31   1.082       .  S
Cu32         N35   2.062       .  S
Cu33         N43   2.075       .  S
Cu34         N36   2.078       .  S
Cu34         N42   2.079       .  S
N35          N36   1.323       .  A
N35          C39   1.343       .  A
N36          C37   1.347       .  A
C37          C38   1.381       .  A
C37          H40   1.082       .  S
C38          C39   1.377       .  A
C38        C2818   1.435       .  S
C39          H41   1.082       .  S
N42          N43   1.324       .  A
N42          C46   1.346       .  A
N43          C44   1.345       .  A
C44          C45   1.378       .  A
C44          H47   1.082       .  S
C45          C46   1.380       .  A
C45        C2804   1.437       .  S
C46          H48   1.082       .  S
N49          N50   1.322       .  A
N49          C53   1.345       .  A
N49         Cu57   2.069       .  S
N50          C51   1.344       .  A
N50         Cu56   2.068       .  S
C51          C52   1.379       .  A
C51          H54   1.082       .  S
C52          C53   1.379       .  A
C52        C2790   1.435       .  S
C53          H55   1.082       .  S
Cu56         N59   2.068       .  S
Cu57         N67   2.069       .  S
Cu58         N60   2.071       .  S
Cu58         N66   2.071       .  S
N59          N60   1.323       .  A
N59          C63   1.343       .  A
N60          C61   1.346       .  A
C61          C62   1.379       .  A
C61          H64   1.082       .  S
C62          C63   1.377       .  A
C62        C2776   1.434       .  S
C63          H65   1.082       .  S
N66          N67   1.323       .  A
N66          C70   1.345       .  A
N67          C68   1.344       .  A
C68          C69   1.378       .  A
C68          H71   1.082       .  S
C69          C70   1.378       .  A
C69        C2762   1.433       .  S
C70          H72   1.082       .  S
N73          N74   1.323       .  A
N73          C77   1.345       .  A
N73         Cu81   2.070       .  S
N74          C75   1.345       .  A
N74         Cu80   2.074       .  S
C75          C76   1.379       .  A
C75          H78   1.082       .  S
C76          C77   1.379       .  A
C76        C2832   1.435       .  S
C77          H79   1.082       .  S
Cu80         N83   2.074       .  S
Cu81         N91   2.071       .  S
Cu82         N84   2.071       .  S
Cu82         N90   2.071       .  S
N83          N84   1.323       .  A
N83          C87   1.345       .  A
N84          C85   1.345       .  A
C85          C86   1.379       .  A
C85          H88   1.082       .  S
C86          C87   1.380       .  A
C86        C2876   1.437       .  S
C87          H89   1.082       .  S
N90          N91   1.323       .  A
N90          C94   1.345       .  A
N91          C92   1.345       .  A
C92          C93   1.379       .  A
C92          H95   1.082       .  S
C93          C94   1.379       .  A
C93        C2792   1.435       .  S
C94          H96   1.082       .  S
N97          N98   1.323       .  A
N97         C101   1.347       .  A
N97        Cu105   2.075       .  S
N98          C99   1.344       .  A
N98        Cu104   2.069       .  S
C99         C100   1.378       .  A
C99         H102   1.082       .  S
C100        C101   1.380       .  A
C100       C2748   1.435       .  S
C101        H103   1.082       .  S
Cu104       N107   2.070       .  S
Cu105       N115   2.075       .  S
Cu106       N108   2.076       .  S
Cu106       N114   2.076       .  S
N107        N108   1.323       .  A
N107        C111   1.345       .  A
N108        C109   1.347       .  A
C109        C110   1.381       .  A
C109        H112   1.082       .  S
C110        C111   1.379       .  A
C110       C2734   1.437       .  S
C111        H113   1.082       .  S
N114        N115   1.324       .  A
N114        C118   1.345       .  A
N115        C116   1.346       .  A
C116        C117   1.379       .  A
C116        H119   1.082       .  S
C117        C118   1.379       .  A
C117       C2720   1.437       .  S
C118        H120   1.082       .  S
N121        N122   1.323       .  A
N121        C125   1.347       .  A
N121       Cu129   2.079       .  S
N122        C123   1.343       .  A
N122       Cu128   2.064       .  S
C123        C124   1.377       .  A
C123        H126   1.082       .  S
C124        C125   1.381       .  A
C124       C2708   1.436       .  S
C125        H127   1.082       .  S
Cu128       N131   2.064       .  S
Cu129       N139   2.079       .  S
Cu130       N132   2.076       .  S
Cu130       N138   2.077       .  S
N131        N132   1.322       .  A
N131        C135   1.344       .  A
N132        C133   1.347       .  A
C133        C134   1.381       .  A
C133        H136   1.082       .  S
C134        C135   1.378       .  A
C134       C2692   1.436       .  S
C135        H137   1.082       .  S
N138        N139   1.324       .  A
N138        C142   1.346       .  A
N139        C140   1.346       .  A
C140        C141   1.380       .  A
C140        H143   1.082       .  S
C141        C142   1.379       .  A
C141       C2678   1.438       .  S
C142        H144   1.082       .  S
N145        N146   1.322       .  A
N145        C149   1.346       .  A
N145       Cu153   2.073       .  S
N146        C147   1.344       .  A
N146       Cu152   2.065       .  S
C147        C148   1.378       .  A
C147        H150   1.082       .  S
C148        C149   1.380       .  A
C148       C2664   1.435       .  S
C149        H151   1.082       .  S
Cu152       N155   2.065       .  S
Cu153       N163   2.073       .  S
Cu154       N156   2.078       .  S
Cu154       N162   2.079       .  S
N155        N156   1.323       .  A
N155        C159   1.343       .  A
N156        C157   1.347       .  A
C157        C158   1.381       .  A
C157        H160   1.082       .  S
C158        C159   1.377       .  A
C158       C2650   1.436       .  S
C159        H161   1.082       .  S
N162        N163   1.324       .  A
N162        C166   1.346       .  A
N163        C164   1.345       .  A
C164        C165   1.378       .  A
C164        H167   1.082       .  S
C165        C166   1.380       .  A
C165       C2636   1.437       .  S
C166        H168   1.082       .  S
N169        N170   1.323       .  A
N169        C173   1.345       .  A
N169       Cu177   2.072       .  S
N170        C171   1.345       .  A
N170       Cu176   2.070       .  S
C171        C172   1.379       .  A
C171        H174   1.082       .  S
C172        C173   1.379       .  A
C172       C2706   1.435       .  S
C173        H175   1.082       .  S
Cu176       N179   2.070       .  S
Cu177       N187   2.072       .  S
Cu178       N180   2.070       .  S
Cu178       N186   2.070       .  S
N179        N180   1.323       .  A
N179        C183   1.345       .  A
N180        C181   1.345       .  A
C181        C182   1.379       .  A
C181        H184   1.082       .  S
C182        C183   1.378       .  A
C182       C2666   1.434       .  S
C183        H185   1.082       .  S
N186        N187   1.323       .  A
N186        C190   1.345       .  A
N187        C188   1.345       .  A
C188        C189   1.379       .  A
C188        H191   1.082       .  S
C189        C190   1.378       .  A
C189       C2750   1.435       .  S
C190        H192   1.082       .  S
N193        N194   1.323       .  A
N193        C197   1.348       .  A
N193       Cu201   2.083       .  S
N194        C195   1.344       .  A
N194       Cu200   2.065       .  S
C195        C196   1.377       .  A
C195        H198   1.082       .  S
C196        C197   1.382       .  A
C196       C2622   1.437       .  S
C197        H199   1.082       .  S
Cu200       N203   2.065       .  S
Cu201       N211   2.083       .  S
Cu202       N204   2.071       .  S
Cu202       N210   2.072       .  S
N203        N204   1.322       .  A
N203        C207   1.344       .  A
N204        C205   1.346       .  A
C205        C206   1.380       .  A
C205        H208   1.082       .  S
C206        C207   1.378       .  A
C206       C2778   1.434       .  S
C207        H209   1.082       .  S
N210        N211   1.324       .  A
N210        C214   1.345       .  A
N211        C212   1.347       .  A
C212        C213   1.381       .  A
C212        H215   1.082       .  S
C213        C214   1.378       .  A
C213       C2610   1.438       .  S
C214        H216   1.082       .  S
N217        N218   1.323       .  A
N217        C221   1.347       .  A
N217       Cu225   2.077       .  S
N218        C219   1.344       .  A
N218       Cu224   2.071       .  S
C219        C220   1.378       .  A
C219        H222   1.082       .  S
C220        C221   1.381       .  A
C220       C2594   1.438       .  S
C221        H223   1.082       .  S
Cu224       N227   2.071       .  S
Cu225       N235   2.077       .  S
Cu226       N228   2.079       .  S
Cu226       N234   2.079       .  S
N227        N228   1.323       .  A
N227        C231   1.345       .  A
N228        C229   1.347       .  A
C229        C230   1.382       .  A
C229        H232   1.082       .  S
C230        C231   1.379       .  A
C230       C2580   1.439       .  S
C231        H233   1.082       .  S
N234        N235   1.324       .  A
N234        C238   1.346       .  A
N235        C236   1.346       .  A
C236        C237   1.380       .  A
C236        H239   1.082       .  S
C237        C238   1.380       .  A
C237       C2566   1.439       .  S
C238        H240   1.082       .  S
N241        N242   1.323       .  A
N241        C245   1.346       .  A
N241       Cu249   2.073       .  S
N242        C243   1.343       .  A
N242       Cu248   2.065       .  S
C243        C244   1.377       .  A
C243        H246   1.082       .  S
C244        C245   1.380       .  A
C244       C2552   1.434       .  S
C245        H247   1.082       .  S
Cu248       N251   2.065       .  S
Cu249       N259   2.074       .  S
Cu250       N252   2.074       .  S
Cu250       N258   2.075       .  S
N251        N252   1.322       .  A
N251        C255   1.343       .  A
N252        C253   1.347       .  A
C253        C254   1.381       .  A
C253        H256   1.082       .  S
C254        C255   1.378       .  A
C254       C2694   1.436       .  S
C255        H257   1.082       .  S
N258        N259   1.324       .  A
N258        C262   1.345       .  A
N259        C260   1.345       .  A
C260        C261   1.378       .  A
C260        H263   1.082       .  S
C261        C262   1.379       .  A
C261       C2538   1.435       .  S
C262        H264   1.082       .  S
N265        N266   1.323       .  A
N265        C269   1.344       .  A
N265       Cu273   2.069       .  S
N266        C267   1.346       .  A
N266       Cu272   2.078       .  S
C267        C268   1.380       .  A
C267        H270   1.082       .  S
C268        C269   1.378       .  A
C268       C2624   1.436       .  S
C269        H271   1.082       .  S
Cu272       N275   2.078       .  S
Cu273       N283   2.068       .  S
Cu274       N276   2.070       .  S
Cu274       N282   2.070       .  S
N275        N276   1.323       .  A
N275        C279   1.346       .  A
N276        C277   1.345       .  A
C277        C278   1.378       .  A
C277        H280   1.082       .  S
C278        C279   1.380       .  A
C278       C2596   1.437       .  S
C279        H281   1.082       .  S
N282        N283   1.322       .  A
N282        C286   1.345       .  A
N283        C284   1.345       .  A
C284        C285   1.379       .  A
C284        H287   1.082       .  S
C285        C286   1.379       .  A
C285       C2554   1.434       .  S
C286        H288   1.082       .  S
N289        N290   1.323       .  A
N289        C293   1.347       .  A
N289       Cu297   2.078       .  S
N290        C291   1.345       .  A
N290       Cu296   2.071       .  S
C291        C292   1.379       .  A
C291        H294   1.082       .  S
C292        C293   1.381       .  A
C292       C2524   1.438       .  S
C293        H295   1.082       .  S
Cu296       N299   2.071       .  S
Cu297       N307   2.079       .  S
Cu298       N300   2.077       .  S
Cu298       N306   2.078       .  S
N299        N300   1.323       .  A
N299        C303   1.345       .  A
N300        C301   1.347       .  A
C301        C302   1.381       .  A
C301        H304   1.082       .  S
C302        C303   1.379       .  A
C302       C2510   1.438       .  S
C303        H305   1.082       .  S
N306        N307   1.324       .  A
N306        C310   1.346       .  A
N307        C308   1.346       .  A
C308        C309   1.380       .  A
C308        H311   1.082       .  S
C309        C310   1.380       .  A
C309       C2496   1.439       .  S
C310        H312   1.082       .  S
N313        N314   1.322       .  A
N313        C317   1.347       .  A
N313       Cu321   2.074       .  S
N314        C315   1.342       .  A
N314       Cu320   2.061       .  S
C315        C316   1.376       .  A
C315        H318   1.082       .  S
C316        C317   1.380       .  A
C316       C2484   1.433       .  S
C317        H319   1.082       .  S
Cu320       N323   2.061       .  S
Cu321       N331   2.075       .  S
Cu322       N324   2.079       .  S
Cu322       N330   2.080       .  S
N323        N324   1.322       .  A
N323        C327   1.343       .  A
N324        C325   1.347       .  A
C325        C326   1.382       .  A
C325        H328   1.082       .  S
C326        C327   1.377       .  A
C326       C2468   1.436       .  S
C327        H329   1.082       .  S
N330        N331   1.324       .  A
N330        C334   1.346       .  A
N331        C332   1.345       .  A
C332        C333   1.379       .  A
C332        H335   1.082       .  S
C333        C334   1.380       .  A
C333       C2454   1.438       .  S
C334        H336   1.082       .  S
N337        N338   1.323       .  A
N337        C341   1.346       .  A
N337       Cu345   2.073       .  S
N338        C339   1.344       .  A
N338       Cu344   2.069       .  S
C339        C340   1.378       .  A
C339        H342   1.082       .  S
C340        C341   1.379       .  A
C340       C2440   1.435       .  S
C341        H343   1.082       .  S
Cu344       N347   2.069       .  S
Cu345       N355   2.074       .  S
Cu346       N348   2.073       .  S
Cu346       N354   2.073       .  S
N347        N348   1.323       .  A
N347        C351   1.344       .  A
N348        C349   1.346       .  A
C349        C350   1.379       .  A
C349        H352   1.082       .  S
C350        C351   1.378       .  A
C350       C2428   1.435       .  S
C351        H353   1.082       .  S
N354        N355   1.323       .  A
N354        C358   1.346       .  A
N355        C356   1.345       .  A
C356        C357   1.379       .  A
C356        H359   1.082       .  S
C357        C358   1.379       .  A
C357       C2412   1.437       .  S
C358        H360   1.082       .  S
N361        N362   1.323       .  A
N361        C365   1.344       .  A
N361       Cu369   2.071       .  S
N362        C363   1.346       .  A
N362       Cu368   2.072       .  S
C363        C364   1.380       .  A
C363        H366   1.082       .  S
C364        C365   1.379       .  A
C364       C2526   1.437       .  S
C365        H367   1.082       .  S
Cu368       N371   2.072       .  S
Cu369       N379   2.071       .  S
Cu370       N372   2.069       .  S
Cu370       N378   2.069       .  S
N371        N372   1.323       .  A
N371        C375   1.344       .  A
N372        C373   1.345       .  A
C373        C374   1.378       .  A
C373        H376   1.082       .  S
C374        C375   1.378       .  A
C374       C2482   1.433   1_565  S
C375        H377   1.082       .  S
N378        N379   1.323       .  A
N378        C382   1.345       .  A
N379        C380   1.345       .  A
C380        C381   1.379       .  A
C380        H383   1.082       .  S
C381        C382   1.379       .  A
C381       C2442   1.435       .  S
C382        H384   1.082       .  S
N385        N386   1.323       .  A
N385        C389   1.347       .  A
N385       Cu393   2.077       .  S
N386        C387   1.343       .  A
N386       Cu392   2.066       .  S
C387        C388   1.377       .  A
C387        H390   1.082       .  S
C388        C389   1.381       .  A
C388       C2400   1.436       .  S
C389        H391   1.082       .  S
Cu392       N395   2.065       .  S
Cu393       N403   2.077       .  S
Cu394       N396   2.066       .  S
Cu394       N402   2.067       .  S
N395        N396   1.322       .  A
N395        C399   1.344       .  A
N396        C397   1.345       .  A
C397        C398   1.378       .  A
C397        H400   1.082       .  S
C398        C399   1.378       .  A
C398       C2386   1.432       .  S
C399        H401   1.082       .  S
N402        N403   1.324       .  A
N402        C406   1.345       .  A
N403        C404   1.345       .  A
C404        C405   1.379       .  A
C404        H407   1.082       .  S
C405        C406   1.378       .  A
C405       C2372   1.435       .  S
C406        H408   1.082       .  S
N409        N410   1.323       .  A
N409        C413   1.347       .  A
N409       Cu417   2.079       .  S
N410        C411   1.344       .  A
N410       Cu416   2.066       .  S
C411        C412   1.378       .  A
C411        H414   1.082       .  S
C412        C413   1.381       .  A
C412       C2356   1.437       .  S
C413        H415   1.082       .  S
Cu416       N419   2.066       .  S
Cu417       N427   2.080       .  S
Cu418       N420   2.080       .  S
Cu418       N426   2.081       .  S
N419        N420   1.323       .  A
N419        C423   1.344       .  A
N420        C421   1.347       .  A
C421        C422   1.382       .  A
C421        H424   1.082       .  S
C422        C423   1.378       .  A
C422       C2652   1.437       .  S
C423        H425   1.082       .  S
N426        N427   1.324       .  A
N426        C430   1.346       .  A
N427        C428   1.346       .  A
C428        C429   1.380       .  A
C428        H431   1.082       .  S
C429        C430   1.380       .  A
C429       C2342   1.440       .  S
C430        H432   1.082       .  S
N433        N434   1.322       .  A
N433        C437   1.346       .  A
N433       Cu441   2.073       .  S
N434        C435   1.343       .  A
N434       Cu440   2.064       .  S
C435        C436   1.377       .  A
C435        H438   1.082       .  S
C436        C437   1.380       .  A
C436       C2328   1.434       .  S
C437        H439   1.082       .  S
Cu440       N443   2.065       .  S
Cu441       N451   2.074       .  S
Cu442       N444   2.076       .  S
Cu442       N450   2.077       .  S
N443        N444   1.323       .  A
N443        C447   1.344       .  A
N444        C445   1.346       .  A
C445        C446   1.380       .  A
C445        H448   1.082       .  S
C446        C447   1.378       .  A
C446       C2470   1.436       .  S
C447        H449   1.082       .  S
N450        N451   1.324       .  A
N450        C454   1.346       .  A
N451        C452   1.345       .  A
C452        C453   1.379       .  A
C452        H455   1.082       .  S
C453        C454   1.380       .  A
C453       C2316   1.437       .  S
C454        H456   1.082       .  S
N457        N458   1.323       .  A
N457        C461   1.345       .  A
N457       Cu465   2.074       .  S
N458        C459   1.346       .  A
N458       Cu464   2.072       .  S
C459        C460   1.379       .  A
C459        H462   1.082       .  S
C460        C461   1.379       .  A
C460       C2398   1.437       .  S
C461        H463   1.082       .  S
Cu464       N467   2.072       .  S
Cu465       N475   2.074       .  S
Cu466       N468   2.070       .  S
Cu466       N474   2.070       .  S
N467        N468   1.323       .  A
N467        C471   1.345       .  A
N468        C469   1.345       .  A
C469        C470   1.378       .  A
C469        H472   1.082       .  S
C470        C471   1.379       .  A
C470       C2330   1.434       .  S
C471        H473   1.082       .  S
N474        N475   1.323       .  A
N474        C478   1.345       .  A
N475        C476   1.346       .  A
C476        C477   1.379       .  A
C476        H479   1.082       .  S
C477        C478   1.379       .  A
C477       C2358   1.436       .  S
C478        H480   1.082       .  S
N481        N482   1.322       .  A
N481        C485   1.348       .  A
N481       Cu489   2.079       .  S
N482        C483   1.343       .  A
N482       Cu488   2.061       .  S
C483        C484   1.377       .  A
C483        H486   1.082       .  S
C484        C485   1.382       .  A
C484       C2300   1.437       .  S
C485        H487   1.082       .  S
Cu488       N491   2.061       .  S
Cu489       N499   2.080       .  S
Cu490       N492   2.079       .  S
Cu490       N498   2.080       .  S
N491        N492   1.322       .  A
N491        C495   1.343       .  A
N492        C493   1.347       .  A
C493        C494   1.382       .  A
C493        H496   1.082       .  S
C494        C495   1.376       .  A
C494       C2288   1.435       .  S
C495        H497   1.082       .  S
N498        N499   1.325       .  A
N498        C502   1.346       .  A
N499        C500   1.346       .  A
C500        C501   1.379       .  A
C500        H503   1.082       .  S
C501        C502   1.380       .  A
C501       C2272   1.439       .  S
C502        H504   1.082       .  S
N505        N506   1.323       .  A
N505        C509   1.347       .  A
N505       Cu513   2.081       .  S
N506        C507   1.345       .  A
N506       Cu512   2.072       .  S
C507        C508   1.379       .  A
C507        H510   1.082       .  S
C508        C509   1.382       .  A
C508       C2258   1.439       .  S
C509        H511   1.082       .  S
Cu512       N515   2.072       .  S
Cu513       N523   2.081       .  S
Cu514       N516   2.076       .  S
Cu514       N522   2.076       .  S
N515        N516   1.323       .  A
N515        C519   1.345       .  A
N516        C517   1.347       .  A
C517        C518   1.381       .  A
C517        H520   1.082       .  S
C518        C519   1.379       .  A
C518       C2582   1.438       .  S
C519        H521   1.082       .  S
N522        N523   1.324       .  A
N522        C526   1.346       .  A
N523        C524   1.346       .  A
C524        C525   1.380       .  A
C524        H527   1.082       .  S
C525        C526   1.379       .  A
C525       C2244   1.439       .  S
C526        H528   1.082       .  S
N529        N530   1.322       .  A
N529        C533   1.346       .  A
N529       Cu537   2.073       .  S
N530        C531   1.343       .  A
N530       Cu536   2.062       .  S
C531        C532   1.377       .  A
C531        H534   1.082       .  S
C532        C533   1.380       .  A
C532       C2230   1.434       .  S
C533        H535   1.082       .  S
Cu536       N539   2.062       .  S
Cu537       N547   2.073       .  S
Cu538       N540   2.070       .  S
Cu538       N546   2.071       .  S
N539        N540   1.322       .  A
N539        C543   1.343       .  A
N540        C541   1.345       .  A
C541        C542   1.379       .  A
C541        H544   1.082       .  S
C542        C543   1.377       .  A
C542       C2384   1.432       .  S
C543        H545   1.082       .  S
N546        N547   1.324       .  A
N546        C550   1.345       .  A
N547        C548   1.344       .  A
C548        C549   1.378       .  A
C548        H551   1.082       .  S
C549        C550   1.379       .  A
C549       C2216   1.434       .  S
C550        H552   1.082       .  S
N553        N554   1.323       .  A
N553        C557   1.345       .  A
N553       Cu561   2.072       .  S
N554        C555   1.346       .  A
N554       Cu560   2.074       .  S
C555        C556   1.379       .  A
C555        H558   1.082       .  S
C556        C557   1.379       .  A
C556       C2232   1.436   1_554  S
C557        H559   1.082       .  S
Cu560       N563   2.075       .  S
Cu561       N571   2.072       .  S
Cu562       N564   2.077       .  S
Cu562       N570   2.077       .  S
N563        N564   1.323       .  A
N563        C567   1.346   1_455  A
N564        C565   1.346       .  A
C565        C566   1.380   1_455  A
C565        H568   1.082       .  S
C566        C567   1.380       .  A
C566       C2260   1.439       .  S
C567        H569   1.082       .  S
N570        N571   1.323       .  A
N570        C574   1.346       .  A
N571        C572   1.346       .  A
C572        C573   1.379       .  A
C572        H575   1.082       .  S
C573        C574   1.380       .  A
C573       C2302   1.438       .  S
C574        H576   1.082       .  S
N577        N578   1.323       .  A
N577        C581   1.347       .  A
N577       Cu585   2.076       .  S
N578        C579   1.344       .  A
N578       Cu584   2.067       .  S
C579        C580   1.378       .  A
C579        H582   1.082       .  S
C580        C581   1.380       .  A
C580       C2202   1.436       .  S
C581        H583   1.082       .  S
Cu584       N587   2.067       .  S
Cu585       N595   2.076       .  S
Cu586       N588   2.073       .  S
Cu586       N594   2.073       .  S
N587        N588   1.322       .  A
N587        C591   1.344       .  A
N588        C589   1.346       .  A
C589        C590   1.380       .  A
C589        H592   1.082       .  S
C590        C591   1.378       .  A
C590       C2426   1.435       .  S
C591        H593   1.082       .  S
N594        N595   1.324       .  A
N594        C598   1.345       .  A
N595        C596   1.345       .  A
C596        C597   1.379       .  A
C596        H599   1.082       .  S
C597        C598   1.379       .  A
C597       C2190   1.436       .  S
C598        H600   1.082       .  S
N601        N602   1.322       .  A
N601        C605   1.346       .  A
N601       Cu609   2.071       .  S
N602        C603   1.343       .  A
N602       Cu608   2.063       .  S
C603        C604   1.377       .  A
C603        H606   1.082       .  S
C604        C605   1.380       .  A
C604       C2174   1.433       .  S
C605        H607   1.082       .  S
Cu608       N611   2.063       .  S
Cu609       N619   2.071       .  S
Cu610       N612   2.076       .  S
Cu610       N618   2.076       .  S
N611        N612   1.323       .  A
N611        C615   1.343       .  A
N612        C613   1.346       .  A
C613        C614   1.380       .  A
C613        H616   1.082       .  S
C614        C615   1.377       .  A
C614       C2286   1.435       .  S
C615        H617   1.082       .  S
N618        N619   1.324       .  A
N618        C622   1.346       .  A
N619        C620   1.344       .  A
C620        C621   1.378       .  A
C620        H623   1.082       .  S
C621        C622   1.379       .  A
C621       C2162   1.435       .  S
C622        H624   1.082       .  S
N625        N626   1.322       .  A
N625        C629   1.347       .  A
N625       Cu633   2.077       .  S
N626        C627   1.343       .  A
N626       Cu632   2.064       .  S
C627        C628   1.377       .  A
C627        H630   1.082       .  S
C628        C629   1.381       .  A
C628       C2146   1.436       .  S
C629        H631   1.082       .  S
Cu632       N635   2.064       .  S
Cu633       N643   2.078       .  S
Cu634       N636   2.078       .  S
Cu634       N642   2.079       .  S
N635        N636   1.323       .  A
N635        C639   1.343       .  A
N636        C637   1.347       .  A
C637        C638   1.381       .  A
C637        H640   1.082       .  S
C638        C639   1.377       .  A
C638       C2820   1.435       .  S
C639        H641   1.082       .  S
N642        N643   1.324       .  A
N642        C646   1.346       .  A
N643        C644   1.346       .  A
C644        C645   1.379       .  A
C644        H647   1.082       .  S
C645        C646   1.380       .  A
C645       C2132   1.439       .  S
C646        H648   1.082       .  S
N649        N650   1.322       .  A
N649        C653   1.346       .  A
N649       Cu657   2.075       .  S
N650        C651   1.344       .  A
N650       Cu656   2.063       .  S
C651        C652   1.378       .  A
C651        H654   1.082       .  S
C652        C653   1.380       .  A
C652       C2204   1.435       .  S
C653        H655   1.082       .  S
Cu656       N659   2.062       .  S
Cu657       N667   2.075       .  S
Cu658       N660   2.075       .  S
Cu658       N666   2.076       .  S
N659        N660   1.323       .  A
N659        C663   1.343       .  A
N660        C661   1.346       .  A
C661        C662   1.380       .  A
C661        H664   1.082       .  S
C662        C663   1.376       .  A
C662       C2176   1.433       .  S
C663        H665   1.082       .  S
N666        N667   1.324       .  A
N666        C670   1.346       .  A
N667        C668   1.345       .  A
C668        C669   1.378       .  A
C668        H671   1.082       .  S
C669        C670   1.379       .  A
C669       C2148   1.436       .  S
C670        H672   1.082       .  S
N673        N674   1.323       .  A
N673        C677   1.346       .  A
N673       Cu681   2.074       .  S
N674        C675   1.344       .  A
N674       Cu680   2.068       .  S
C675        C676   1.378       .  A
C675        H678   1.082       .  S
C676        C677   1.380       .  A
C676       C2118   1.435       .  S
C677        H679   1.082       .  S
Cu680       N683   2.068       .  S
Cu681       N691   2.075       .  S
Cu682       N684   2.076       .  S
Cu682       N690   2.077       .  S
N683        N684   1.323       .  A
N683        C687   1.345       .  A
N684        C685   1.346       .  A
C685        C686   1.381       .  A
C685        H688   1.082       .  S
C686        C687   1.379       .  A
C686       C2862   1.437       .  S
C687        H689   1.082       .  S
N690        N691   1.324       .  A
N690        C694   1.346       .  A
N691        C692   1.345       .  A
C692        C693   1.379       .  A
C692        H695   1.082       .  S
C693        C694   1.379       .  A
C693       C2104   1.437       .  S
C694        H696   1.082       .  S
N697        N698   1.323       .  A
N697        C701   1.347       .  A
N697       Cu705   2.077       .  S
N698        C699   1.343       .  A
N698       Cu704   2.064       .  S
C699        C700   1.377       .  A
C699        H702   1.082       .  S
C700        C701   1.381       .  A
C700       C2090   1.435       .  S
C701        H703   1.082       .  S
Cu704       N707   2.064       .  S
Cu705       N715   2.078       .  S
Cu706       N708   2.078       .  S
Cu706       N714   2.078       .  S
N707        N708   1.322       .  A
N707        C711   1.344       .  A
N708        C709   1.347       .  A
C709        C710   1.381       .  A
C709        H712   1.082       .  S
C710        C711   1.378       .  A
C710       C2512   1.437       .  S
C711        H713   1.082       .  S
N714        N715   1.324       .  A
N714        C718   1.346       .  A
N715        C716   1.346       .  A
C716        C717   1.379       .  A
C716        H719   1.082       .  S
C717        C718   1.379       .  A
C717       C2076   1.438       .  S
C718        H720   1.082       .  S
N721        N722   1.322       .  A
N721        C725   1.346       .  A
N721       Cu729   2.071       .  S
N722        C723   1.344       .  A
N722       Cu728   2.070       .  S
C723        C724   1.379       .  A
C723        H726   1.082       .  S
C724        C725   1.380       .  A
C724       C2062   1.436       .  S
C725        H727   1.082       .  S
Cu728       N731   2.071       .  S
Cu729       N739   2.072       .  S
Cu730       N732   2.076       .  S
Cu730       N738   2.076       .  S
N731        N732   1.323       .  A
N731        C735   1.344       .  A
N732        C733   1.347       .  A
C733        C734   1.381       .  A
C733        H736   1.082       .  S
C734        C735   1.378       .  A
C734       C2736   1.437       .  S
C735        H737   1.082       .  S
N738        N739   1.324       .  A
N738        C742   1.346       .  A
N739        C740   1.345       .  A
C740        C741   1.378       .  A
C740        H743   1.082       .  S
C741        C742   1.379       .  A
C741       C2048   1.436       .  S
C742        H744   1.082       .  S
N745        N746   1.323       .  A
N745        C749   1.344       .  A
N745       Cu753   2.071       .  S
N746        C747   1.346       .  A
N746       Cu752   2.072       .  S
C747        C748   1.379       .  A
C747        H750   1.082       .  S
C748        C749   1.378       .  A
C748       C2092   1.435       .  S
C749        H751   1.082       .  S
Cu752       N755   2.072       .  S
Cu753       N763   2.070       .  S
Cu754       N756   2.068       .  S
Cu754       N762   2.068       .  S
N755        N756   1.323       .  A
N755        C759   1.345       .  A
N756        C757   1.345       .  A
C757        C758   1.378       .  A
C757        H760   1.082       .  S
C758        C759   1.379       .  A
C758       C2120   1.434       .  S
C759        H761   1.082       .  S
N762        N763   1.323       .  A
N762        C766   1.344       .  A
N763        C764   1.346       .  A
C764        C765   1.379       .  A
C764        H767   1.082       .  S
C765        C766   1.378       .  A
C765       C2064   1.435       .  S
C766        H768   1.082       .  S
N769        N770   1.322       .  A
N769        C773   1.347       .  A
N769       Cu777   2.074       .  S
N770        C771   1.343       .  A
N770       Cu776   2.066       .  S
C771        C772   1.378       .  A
C771        H774   1.082       .  S
C772        C773   1.381       .  A
C772       C2034   1.436       .  S
C773        H775   1.082       .  S
Cu776       N779   2.066       .  S
Cu777       N787   2.075       .  S
Cu778       N780   2.076       .  S
Cu778       N786   2.077       .  S
N779        N780   1.322       .  A
N779        C783   1.344       .  A
N780        C781   1.347       .  A
C781        C782   1.381       .  A
C781        H784   1.082       .  S
C782        C783   1.378       .  A
C782       C2020   1.437       .  S
C783        H785   1.082       .  S
N786        N787   1.325       .  A
N786        C790   1.345       .  A
N787        C788   1.345       .  A
C788        C789   1.378       .  A
C788        H791   1.082       .  S
C789        C790   1.379       .  A
C789       C2160   1.435       .  S
C790        H792   1.082       .  S
N793        N794   1.323       .  A
N793        C797   1.347       .  A
N793       Cu801   2.075       .  S
N794        C795   1.343       .  A
N794       Cu800   2.067       .  S
C795        C796   1.377       .  A
C795        H798   1.082       .  S
C796        C797   1.381       .  A
C796       C2006   1.435       .  S
C797        H799   1.082       .  S
Cu800       N803   2.067       .  S
Cu801       N811   2.076       .  S
Cu802       N804   2.074       .  S
Cu802       N810   2.074       .  S
N803        N804   1.322       .  A
N803        C807   1.344       .  A
N804        C805   1.346       .  A
C805        C806   1.381       .  A
C805        H808   1.082       .  S
C806        C807   1.378       .  A
C806       C1994   1.436       .  S
C807        H809   1.082       .  S
N810        N811   1.324       .  A
N810        C814   1.345       .  A
N811        C812   1.346       .  A
C812        C813   1.379       .  A
C812        H815   1.082       .  S
C813        C814   1.378       .  A
C813       C2540   1.436       .  S
C814        H816   1.082       .  S
N817        N818   1.322       .  A
N817        C821   1.345       .  A
N817       Cu825   2.071       .  S
N818        C819   1.344       .  A
N818       Cu824   2.067       .  S
C819        C820   1.378       .  A
C819        H822   1.082       .  S
C820        C821   1.379       .  A
C820       C1978   1.434       .  S
C821        H823   1.082       .  S
Cu824       N827   2.067       .  S
Cu825       N835   2.072       .  S
Cu826       N828   2.081       .  S
Cu826       N834   2.081       .  S
N827        N828   1.323       .  A
N827        C831   1.344       .  A
N828        C829   1.348       .  A
C829        C830   1.382       .  A
C829        H832   1.082       .  S
C830        C831   1.378       .  A
C830       C1964   1.438       .  S
C831        H833   1.082       .  S
N834        N835   1.324       .  A
N834        C838   1.346       .  A
N835        C836   1.345       .  A
C836        C837   1.379       .  A
C836        H839   1.082       .  S
C837        C838   1.380       .  A
C837       C2078   1.438       .  S
C838        H840   1.082       .  S
N841        N842   1.323       .  A
N841        C845   1.345       .  A
N841       Cu849   2.070       .  S
N842        C843   1.345       .  A
N842       Cu848   2.071       .  S
C843        C844   1.379       .  A
C843        H846   1.082       .  S
C844        C845   1.379       .  A
C844       C2008   1.435       .  S
C845        H847   1.082       .  S
Cu848       N851   2.071       .  S
Cu849       N859   2.070       .  S
Cu850       N852   2.070       .  S
Cu850       N858   2.071       .  S
N851        N852   1.323       .  A
N851        C855   1.345       .  A
N852        C853   1.345       .  A
C853        C854   1.379       .  A
C853        H856   1.082       .  S
C854        C855   1.379       .  A
C854       C2036   1.436       .  S
C855        H857   1.082       .  S
N858        N859   1.323       .  A
N858        C862   1.344       .  A
N859        C860   1.345       .  A
C860        C861   1.378       .  A
C860        H863   1.082       .  S
C861        C862   1.378       .  A
C861       C1980   1.434       .  S
C862        H864   1.082       .  S
N865        N866   1.323       .  A
N865        C869   1.348       .  A
N865       Cu873   2.081       .  S
N866        C867   1.344       .  A
N866       Cu872   2.069       .  S
C867        C868   1.378       .  A
C867        H870   1.082       .  S
C868        C869   1.382       .  A
C868       C1950   1.438       .  S
C869        H871   1.082       .  S
Cu872       N875   2.069       .  S
Cu873       N883   2.081       .  S
Cu874       N876   2.075       .  S
Cu874       N882   2.076       .  S
N875        N876   1.323       .  A
N875        C879   1.345       .  A
N876        C877   1.346       .  A
C877        C878   1.380       .  A
C877        H880   1.082       .  S
C878        C879   1.379       .  A
C878       C1938   1.437       .  S
C879        H881   1.082       .  S
N882        N883   1.324       .  A
N882        C886   1.346       .  A
N883        C884   1.346       .  A
C884        C885   1.380       .  A
C884        H887   1.082       .  S
C885        C886   1.380       .  A
C885       C2568   1.439       .  S
C886        H888   1.082       .  S
N889        N890   1.323       .  A
N889        C893   1.346       .  A
N889       Cu897   2.075       .  S
N890        C891   1.344       .  A
N890       Cu896   2.067       .  S
C891        C892   1.378       .  A
C891        H894   1.082       .  S
C892        C893   1.380       .  A
C892       C1922   1.436       .  S
C893        H895   1.082       .  S
Cu896       N899   2.067       .  S
Cu897       N907   2.075       .  S
Cu898       N900   2.076       .  S
Cu898       N906   2.076       .  S
N899        N900   1.323       .  A
N899        C903   1.344       .  A
N900        C901   1.347       .  A
C901        C902   1.381       .  A
C901        H904   1.082       .  S
C902        C903   1.378       .  A
C902       C1908   1.436       .  S
C903        H905   1.082       .  S
N906        N907   1.324       .  A
N906        C910   1.346       .  A
N907        C908   1.345       .  A
C908        C909   1.379       .  A
C908        H911   1.082       .  S
C909        C910   1.379       .  A
C909       C2314   1.437       .  S
C910        H912   1.082       .  S
N913        N914   1.322       .  A
N913        C917   1.347       .  A
N913       Cu921   2.073       .  S
N914        C915   1.344       .  A
N914       Cu920   2.068       .  S
C915        C916   1.378       .  A
C915        H918   1.082       .  S
C916        C917   1.381       .  A
C916       C1894   1.436       .  S
C917        H919   1.082       .  S
Cu920       N923   2.068       .  S
Cu921       N931   2.074       .  S
Cu922       N924   2.077       .  S
Cu922       N930   2.077       .  S
N923        N924   1.323       .  A
N923        C927   1.344       .  A
N924        C925   1.347       .  A
C925        C926   1.381       .  A
C925        H928   1.082       .  S
C926        C927   1.378       .  A
C926       C1882   1.436       .  S
C927        H929   1.082       .  S
N930        N931   1.324       .  A
N930        C934   1.346       .  A
N931        C932   1.345       .  A
C932        C933   1.378       .  A
C932        H935   1.082       .  S
C933        C934   1.380       .  A
C933       C2106   1.437       .  S
C934        H936   1.082       .  S
N937        N938   1.323       .  A
N937        C941   1.345       .  A
N937       Cu945   2.068       .  S
N938        C939   1.346       .  A
N938       Cu944   2.079       .  S
C939        C940   1.381       .  A
C939        H942   1.082       .  S
C940        C941   1.378       .  A
C940       C1896   1.437       .  S
C941        H943   1.082       .  S
Cu944       N947   2.079       .  S
Cu945       N955   2.068       .  S
Cu946       N948   2.076       .  S
Cu946       N954   2.076       .  S
N947        N948   1.324       .  A
N947        C951   1.346       .  A
N948        C949   1.346       .  A
C949        C950   1.380       .  A
C949        H952   1.082       .  S
C950        C951   1.380       .  A
C950       C1952   1.439       .  S
C951        H953   1.082       .  S
N954        N955   1.323       .  A
N954        C958   1.346       .  A
N955        C956   1.345       .  A
C956        C957   1.378       .  A
C956        H959   1.082       .  S
C957        C958   1.380       .  A
C957       C1924   1.436       .  S
C958        H960   1.082       .  S
N961        N962   1.322       .  A
N961        C965   1.346       .  A
N961       Cu969   2.070       .  S
N962        C963   1.344       .  A
N962       Cu968   2.067       .  S
C963        C964   1.378       .  A
C963        H966   1.082       .  S
C964        C965   1.380       .  A
C964       C1866   1.435       .  S
C965        H967   1.082       .  S
Cu968       N971   2.067       .  S
Cu969       N979   2.071       .  S
Cu970       N972   2.074       .  S
Cu970       N978   2.074       .  S
N971        N972   1.322       .  A
N971        C975   1.343       .  A
N972        C973   1.347       .  A
C973        C974   1.381       .  A
C973        H976   1.082       .  S
C974        C975   1.378       .  A
C974       C1910   1.436       .  S
C975        H977   1.082       .  S
N978        N979   1.324       .  A
N978        C982   1.345       .  A
N979        C980   1.345       .  A
C980        C981   1.378       .  A
C980        H983   1.082       .  S
C981        C982   1.378       .  A
C981       C2764   1.434       .  S
C982        H984   1.082       .  S
N985        N986   1.323       .  A
N985        C989   1.347       .  A
N985       Cu993   2.076       .  S
N986        C987   1.343       .  A
N986       Cu992   2.065       .  S
C987        C988   1.377       .  A
C987        H990   1.082       .  S
C988        C989   1.381       .  A
C988       C1852   1.435       .  S
C989        H991   1.082       .  S
Cu992       N995   2.065       .  S
Cu993      N1003   2.076       .  S
Cu994       N996   2.077       .  S
Cu994      N1002   2.077       .  S
N995        N996   1.322       .  A
N995        C999   1.344       .  A
N996        C997   1.347       .  A
C997        C998   1.381       .  A
C997       H1000   1.082       .  S
C998        C999   1.378       .  A
C998       C1992   1.436       .  S
C999       H1001   1.082       .  S
N1002      N1003   1.324       .  A
N1002      C1006   1.346       .  A
N1003      C1004   1.346       .  A
C1004      C1005   1.379       .  A
C1004      H1007   1.082       .  S
C1005      C1006   1.379       .  A
C1005      C2414   1.437       .  S
C1006      H1008   1.082       .  S
N1009      N1010   1.322       .  A
N1009      C1013   1.346       .  A
N1009     Cu1017   2.072       .  S
N1010      C1011   1.343       .  A
N1010     Cu1016   2.065       .  S
C1011      C1012   1.377       .  A
C1011      H1014   1.082       .  S
C1012      C1013   1.380       .  A
C1012      C1838   1.434       .  S
C1013      H1015   1.082       .  S
Cu1016     N1019   2.065       .  S
Cu1017     N1027   2.073       .  S
Cu1018     N1020   2.081       .  S
Cu1018     N1026   2.081       .  S
N1019      N1020   1.323       .  A
N1019      C1023   1.344       .  A
N1020      C1021   1.347       .  A
C1021      C1022   1.382       .  A
C1021      H1024   1.082       .  S
C1022      C1023   1.378       .  A
C1022      C1824   1.438       .  S
C1023      H1025   1.082       .  S
N1026      N1027   1.324       .  A
N1026      C1030   1.346       .  A
N1027      C1028   1.345       .  A
C1028      C1029   1.378       .  A
C1028      H1031   1.082       .  S
C1029      C1030   1.380       .  A
C1029      C2638   1.437       .  S
C1030      H1032   1.082       .  S
N1033      N1034   1.323       .  A
N1033      C1037   1.345       .  A
N1033     Cu1041   2.071       .  S
N1034      C1035   1.345       .  A
N1034     Cu1040   2.068       .  S
C1035      C1036   1.378       .  A
C1035      H1038   1.082       .  S
C1036      C1037   1.379       .  A
C1036      C1840   1.434       .  S
C1037      H1039   1.082       .  S
Cu1040     N1043   2.068       .  S
Cu1041     N1051   2.072       .  S
Cu1042     N1044   2.071       .  S
Cu1042     N1050   2.071       .  S
N1043      N1044   1.323       .  A
N1043      C1047   1.344       .  A
N1044      C1045   1.345       .  A
C1045      C1046   1.379       .  A
C1045      H1048   1.082       .  S
C1046      C1047   1.378       .  A
C1046      C1868   1.434       .  S
C1047      H1049   1.082       .  S
N1050      N1051   1.323       .  A
N1050      C1054   1.345       .  A
N1051      C1052   1.345       .  A
C1052      C1053   1.379       .  A
C1052      H1055   1.082       .  S
C1053      C1054   1.378       .  A
C1053      C1854   1.435       .  S
C1054      H1056   1.082       .  S
N1057      N1058   1.323       .  A
N1057      C1061   1.347       .  A
N1057     Cu1065   2.073       .  S
N1058      C1059   1.343       .  A
N1058     Cu1064   2.064       .  S
C1059      C1060   1.377       .  A
C1059      H1062   1.082       .  S
C1060      C1061   1.380       .  A
C1060      C1810   1.434       .  S
C1061      H1063   1.082       .  S
Cu1064     N1067   2.064       .  S
Cu1065     N1075   2.074       .  S
Cu1066     N1068   2.075       .  S
Cu1066     N1074   2.075       .  S
N1067      N1068   1.322       .  A
N1067      C1071   1.344       .  A
N1068      C1069   1.346       .  A
C1069      C1070   1.381       .  A
C1069      H1072   1.082       .  S
C1070      C1071   1.378       .  A
C1070      C1796   1.436       .  S
C1071      H1073   1.082       .  S
N1074      N1075   1.324       .  A
N1074      C1078   1.346       .  A
N1075      C1076   1.345       .  A
C1076      C1077   1.379       .  A
C1076      H1079   1.082       .  S
C1077      C1078   1.379       .  A
C1077      C2370   1.435       .  S
C1078      H1080   1.082       .  S
N1081      N1082   1.322       .  A
N1081      C1085   1.347       .  A
N1081     Cu1089   2.076       .  S
N1082      C1083   1.344       .  A
N1082     Cu1088   2.065       .  S
C1083      C1084   1.378       .  A
C1083      H1086   1.082       .  S
C1084      C1085   1.381       .  A
C1084      C1782   1.436       .  S
C1085      H1087   1.082       .  S
Cu1088     N1091   2.066       .  S
Cu1089     N1099   2.077       .  S
Cu1090     N1092   2.082       .  S
Cu1090     N1098   2.082       .  S
N1091      N1092   1.323       .  A
N1091      C1095   1.344       .  A
N1092      C1093   1.347       .  A
C1093      C1094   1.382       .  A
C1093      H1096   1.082       .  S
C1094      C1095   1.378       .  A
C1094      C1826   1.438       .  S
C1095      H1097   1.082       .  S
N1098      N1099   1.324       .  A
N1098      C1102   1.347       .  A
N1099      C1100   1.345       .  A
C1100      C1101   1.379       .  A
C1100      H1103   1.082       .  S
C1101      C1102   1.381       .  A
C1101      C2134   1.439       .  S
C1102      H1104   1.082       .  S
N1105      N1106   1.323       .  A
N1105      C1109   1.347       .  A
N1105     Cu1113   2.075       .  S
N1106      C1107   1.344       .  A
N1106     Cu1112   2.067       .  S
C1107      C1108   1.377       .  A
C1107      H1110   1.082       .  S
C1108      C1109   1.380       .  A
C1108      C1768   1.435       .  S
C1109      H1111   1.082       .  S
Cu1112     N1115   2.067       .  S
Cu1113     N1123   2.075       .  S
Cu1114     N1116   2.072       .  S
Cu1114     N1122   2.072       .  S
N1115      N1116   1.322       .  A
N1115      C1119   1.344       .  A
N1116      C1117   1.346       .  A
C1117      C1118   1.380       .  A
C1117      H1120   1.082       .  S
C1118      C1119   1.378       .  A
C1118      C1754   1.435       .  S
C1119      H1121   1.082       .  S
N1122      N1123   1.324       .  A
N1122      C1126   1.345       .  A
N1123      C1124   1.346       .  A
C1124      C1125   1.379       .  A
C1124      H1127   1.082       .  S
C1125      C1126   1.378       .  A
C1125      C2050   1.435       .  S
C1126      H1128   1.082       .  S
N1129      N1130   1.323       .  A
N1129      C1133   1.345       .  A
N1129     Cu1137   2.069       .  S
N1130      C1131   1.345       .  A
N1130     Cu1136   2.071       .  S
C1131      C1132   1.379       .  A
C1131      H1134   1.082       .  S
C1132      C1133   1.379       .  A
C1132      C1770   1.435       .  S
C1133      H1135   1.082       .  S
Cu1136     N1139   2.071       .  S
Cu1137     N1147   2.069       .  S
Cu1138     N1140   2.071       .  S
Cu1138     N1146   2.071       .  S
N1139      N1140   1.323       .  A
N1139      C1143   1.345       .  A
N1140      C1141   1.345       .  A
C1141      C1142   1.379       .  A
C1141      H1144   1.082       .  S
C1142      C1143   1.379       .  A
C1142      C1784   1.436       .  S
C1143      H1145   1.082       .  S
N1146      N1147   1.323       .  A
N1146      C1150   1.345       .  A
N1147      C1148   1.345       .  A
C1148      C1149   1.378       .  A
C1148      H1151   1.082       .  S
C1149      C1150   1.378       .  A
C1149      C1812   1.433       .  S
C1150      H1152   1.082       .  S
N1153      N1154   1.323       .  A
N1153      C1157   1.346       .  A
N1153     Cu1161   2.073       .  S
N1154      C1155   1.344       .  A
N1154     Cu1160   2.069       .  S
C1155      C1156   1.378       .  A
C1155      H1158   1.082       .  S
C1156      C1157   1.380       .  A
C1156      C1740   1.436       .  S
C1157      H1159   1.082       .  S
Cu1160     N1163   2.069       .  S
Cu1161     N1171   2.074       .  S
Cu1162     N1164   2.078       .  S
Cu1162     N1170   2.079       .  S
N1163      N1164   1.323       .  A
N1163      C1167   1.344       .  A
N1164      C1165   1.347       .  A
C1165      C1166   1.381       .  A
C1165      H1168   1.082       .  S
C1166      C1167   1.378       .  A
C1166      C1726   1.437       .  S
C1167      H1169   1.082       .  S
N1170      N1171   1.324       .  A
N1170      C1174   1.347       .  A
N1171      C1172   1.345       .  A
C1172      C1173   1.379       .  A
C1172      H1175   1.082       .  S
C1173      C1174   1.380       .  A
C1173      C2680   1.438       .  S
C1174      H1176   1.082       .  S
N1177      N1178   1.323       .  A
N1177      C1181   1.347       .  A
N1177     Cu1185   2.078       .  S
N1178      C1179   1.345       .  A
N1178     Cu1184   2.069       .  S
C1179      C1180   1.379       .  A
C1179      H1182   1.082       .  S
C1180      C1181   1.381       .  A
C1180      C1712   1.438       .  S
C1181      H1183   1.082       .  S
Cu1184     N1187   2.068       .  S
Cu1185     N1195   2.078       .  S
Cu1186     N1188   2.075       .  S
Cu1186     N1194   2.075       .  S
N1187      N1188   1.323       .  A
N1187      C1191   1.344       .  A
N1188      C1189   1.346       .  A
C1189      C1190   1.380       .  A
C1189      H1192   1.082       .  S
C1190      C1191   1.378       .  A
C1190      C1756   1.435       .  S
C1191      H1193   1.082       .  S
N1194      N1195   1.324       .  A
N1194      C1198   1.346       .  A
N1195      C1196   1.345       .  A
C1196      C1197   1.379       .  A
C1196      H1199   1.082       .  S
C1197      C1198   1.380       .  A
C1197      C2274   1.438       .  S
C1198      H1200   1.082       .  S
N1201      N1202   1.323       .  A
N1201      C1205   1.347       .  A
N1201     Cu1209   2.075       .  S
N1202      C1203   1.344       .  A
N1202     Cu1208   2.067       .  S
C1203      C1204   1.377       .  A
C1203      H1206   1.082       .  S
C1204      C1205   1.381       .  A
C1204      C1698   1.435       .  S
C1205      H1207   1.082       .  S
Cu1208     N1211   2.068       .  S
Cu1209     N1219   2.076       .  S
Cu1210     N1212   2.079       .  S
Cu1210     N1218   2.079       .  S
N1211      N1212   1.323       .  A
N1211      C1215   1.344       .  A
N1212      C1213   1.347       .  A
C1213      C1214   1.381       .  A
C1213      H1216   1.082       .  S
C1214      C1215   1.378       .  A
C1214      C1936   1.437       .  S
C1215      H1217   1.082       .  S
N1218      N1219   1.324       .  A
N1218      C1222   1.346       .  A
N1219      C1220   1.346       .  A
C1220      C1221   1.379       .  A
C1220      H1223   1.082       .  S
C1221      C1222   1.380       .  A
C1221      C2498   1.438       .  S
C1222      H1224   1.082       .  S
N1225      N1226   1.323       .  A
N1225      C1229   1.345       .  A
N1225     Cu1233   2.075       .  S
N1226      C1227   1.345       .  A
N1226     Cu1232   2.070       .  S
C1227      C1228   1.379       .  A
C1227      H1230   1.082       .  S
C1228      C1229   1.379       .  A
C1228      C1742   1.436       .  S
C1229      H1231   1.082       .  S
Cu1232     N1235   2.071       .  S
Cu1233     N1243   2.075       .  S
Cu1234     N1236   2.072       .  S
Cu1234     N1242   2.073       .  S
N1235      N1236   1.323       .  A
N1235      C1239   1.345       .  A
N1236      C1237   1.345       .  A
C1237      C1238   1.379       .  A
C1237      H1240   1.082       .  S
C1238      C1239   1.379       .  A
C1238      C1700   1.435       .  S
C1239      H1241   1.082       .  S
N1242      N1243   1.323       .  A
N1242      C1246   1.345       .  A
N1243      C1244   1.346       .  A
C1244      C1245   1.380       .  A
C1244      H1247   1.082       .  S
C1245      C1246   1.379       .  A
C1245      C1714   1.438       .  S
C1246      H1248   1.082       .  S
N1249      N1250   1.322       .  A
N1249      C1253   1.345       .  A
N1249     Cu1257   2.068       .  S
N1250      C1251   1.344       .  A
N1250     Cu1256   2.067       .  S
C1251      C1252   1.378       .  A
C1251      H1254   1.082       .  S
C1252      C1253   1.379       .  A
C1252      C1686   1.434       .  S
C1253      H1255   1.082       .  S
Cu1256     N1259   2.067       .  S
Cu1257     N1267   2.068       .  S
Cu1258     N1260   2.076       .  S
Cu1258     N1266   2.076       .  S
N1259      N1260   1.323       .  A
N1259      C1263   1.343       .  A
N1260      C1261   1.347       .  A
C1261      C1262   1.381       .  A
C1261      H1264   1.082       .  S
C1262      C1263   1.377       .  A
C1262      C1880   1.436       .  S
C1263      H1265   1.082       .  S
N1266      N1267   1.324       .  A
N1266      C1270   1.345       .  A
N1267      C1268   1.344       .  A
C1268      C1269   1.377       .  A
C1268      H1271   1.082       .  S
C1269      C1270   1.379       .  A
C1269      C2218   1.434       .  S
C1270      H1272   1.082       .  S
N1273      N1274   1.322       .  A
N1273      C1277   1.347       .  A
N1273     Cu1281   2.075       .  S
N1274      C1275   1.343       .  A
N1274     Cu1280   2.062       .  S
C1275      C1276   1.377       .  A
C1275      H1278   1.082       .  S
C1276      C1277   1.381       .  A
C1276      C1672   1.434       .  S
C1277      H1279   1.082       .  S
Cu1280     N1283   2.062       .  S
Cu1281     N1291   2.076       .  S
Cu1282     N1284   2.077       .  S
Cu1282     N1290   2.078       .  S
N1283      N1284   1.322       .  A
N1283      C1287   1.343       .  A
N1284      C1285   1.347       .  A
C1285      C1286   1.382       .  A
C1285      H1288   1.082       .  S
C1286      C1287   1.377       .  A
C1286      C1656   1.435       .  S
C1287      H1289   1.082       .  S
N1290      N1291   1.324       .  A
N1290      C1294   1.346       .  A
N1291      C1292   1.346       .  A
C1292      C1293   1.379       .  A
C1292      H1295   1.082       .  S
C1293      C1294   1.379       .  A
C1293      C2806   1.437       .  S
C1294      H1296   1.082       .  S
N1297      N1298   1.323       .  A
N1297      C1301   1.346       .  A
N1297     Cu1305   2.071       .  S
N1298      C1299   1.344       .  A
N1298     Cu1304   2.070       .  S
C1299      C1300   1.378       .  A
C1299      H1302   1.082       .  S
C1300      C1301   1.380       .  A
C1300      C1644   1.435       .  S
C1301      H1303   1.082       .  S
Cu1304     N1307   2.070       .  S
Cu1305     N1315   2.072       .  S
Cu1306     N1308   2.077       .  S
Cu1306     N1314   2.077       .  S
N1307      N1308   1.323       .  A
N1307      C1311   1.345       .  A
N1308      C1309   1.346       .  A
C1309      C1310   1.380       .  A
C1309      H1312   1.082       .  S
C1310      C1311   1.379       .  A
C1310      C2022   1.437       .  S
C1311      H1313   1.082       .  S
N1314      N1315   1.324       .  A
N1314      C1318   1.346       .  A
N1315      C1316   1.345       .  A
C1316      C1317   1.378       .  A
C1316      H1319   1.082       .  S
C1317      C1318   1.380       .  A
C1317      C2722   1.437       .  S
C1318      H1320   1.082       .  S
N1321      N1322   1.323       .  A
N1321      C1325   1.345       .  A
N1321     Cu1329   2.072       .  S
N1322      C1323   1.345       .  A
N1322     Cu1328   2.070       .  S
C1323      C1324   1.378       .  A
C1323      H1326   1.082       .  S
C1324      C1325   1.379       .  A
C1324      C1670   1.435       .  S
C1325      H1327   1.082       .  S
Cu1328     N1331   2.070       .  S
Cu1329     N1339   2.072       .  S
Cu1330     N1332   2.068       .  S
Cu1330     N1338   2.068       .  S
N1331      N1332   1.323       .  A
N1331      C1335   1.345       .  A
N1332      C1333   1.344       .  A
C1333      C1334   1.378       .  A
C1333      H1336   1.082       .  S
C1334      C1335   1.379       .  A
C1334      C1684   1.434       .  S
C1335      H1337   1.082       .  S
N1338      N1339   1.323       .  A
N1338      C1342   1.345       .  A
N1339      C1340   1.345       .  A
C1340      C1341   1.379       .  A
C1340      H1343   1.082       .  S
C1341      C1342   1.378       .  A
C1341      C1642   1.435       .  S
C1342      H1344   1.082       .  S
N1345      N1346   1.323       .  A
N1345      C1349   1.346       .  A
N1345     Cu1353   2.074       .  S
N1346      C1347   1.344       .  A
N1346     Cu1352   2.068       .  S
C1347      C1348   1.377       .  A
C1347      H1350   1.082       .  S
C1348      C1349   1.380       .  A
C1348      C1628   1.434       .  S
C1349      H1351   1.082       .  S
Cu1352     N1355   2.068       .  S
Cu1353     N1363   2.074       .  S
Cu1354     N1356   2.072       .  S
Cu1354     N1362   2.072       .  S
N1355      N1356   1.322       .  A
N1355      C1359   1.344       .  A
N1356      C1357   1.346       .  A
C1357      C1358   1.380       .  A
C1357      H1360   1.082       .  S
C1358      C1359   1.379       .  A
C1358      C1728   1.436       .  S
C1359      H1361   1.082       .  S
N1362      N1363   1.324       .  A
N1362      C1366   1.345       .  A
N1363      C1364   1.345       .  A
C1364      C1365   1.379       .  A
C1364      H1367   1.082       .  S
C1365      C1366   1.378       .  A
C1365      C2188   1.436       .  S
C1366      H1368   1.082       .  S
N1369      N1370   1.323       .  A
N1369      C1373   1.347       .  A
N1369     Cu1377   2.077       .  S
N1370      C1371   1.344       .  A
N1370     Cu1376   2.067       .  S
C1371      C1372   1.377       .  A
C1371      H1374   1.082       .  S
C1372      C1373   1.380       .  A
C1372      C1616   1.435       .  S
C1373      H1375   1.082       .  S
Cu1376     N1379   2.067       .  S
Cu1377     N1387   2.078       .  S
Cu1378     N1380   2.078       .  S
Cu1378     N1386   2.079       .  S
N1379      N1380   1.323       .  A
N1379      C1383   1.344       .  A
N1380      C1381   1.347       .  A
C1381      C1382   1.381       .  A
C1381      H1384   1.082       .  S
C1382      C1383   1.378       .  A
C1382      C1658   1.437       .  S
C1383      H1385   1.082       .  S
N1386      N1387   1.324       .  A
N1386      C1390   1.347       .  A
N1387      C1388   1.346       .  A
C1388      C1389   1.380       .  A
C1388      H1391   1.082       .  S
C1389      C1390   1.380       .  A
C1389      C2344   1.440       .  S
C1390      H1392   1.082       .  S
N1393      N1394   1.323       .  A
N1393      C1397   1.347       .  A
N1393     Cu1401   2.079       .  S
N1394      C1395   1.343       .  A
N1394     Cu1400   2.062       .  S
C1395      C1396   1.377       .  A
C1395      H1398   1.082       .  S
C1396      C1397   1.381       .  A
C1396      C1602   1.435       .  S
C1397      H1399   1.082       .  S
Cu1400     N1403   2.062       .  S
Cu1401     N1411   2.079       .  S
Cu1402     N1404   2.074       .  S
Cu1402     N1410   2.075       .  S
N1403      N1404   1.322       .  A
N1403      C1407   1.343       .  A
N1404      C1405   1.346       .  A
C1405      C1406   1.380       .  A
C1405      H1408   1.082       .  S
C1406      C1407   1.377       .  A
C1406      C1586   1.433       .  S
C1407      H1409   1.082       .  S
N1410      N1411   1.324       .  A
N1410      C1414   1.346       .  A
N1411      C1412   1.346       .  A
C1412      C1413   1.380       .  A
C1412      H1415   1.082       .  S
C1413      C1414   1.379       .  A
C1413      C2608   1.438       .  S
C1414      H1416   1.082       .  S
N1417      N1418   1.323       .  A
N1417      C1421   1.345       .  A
N1417     Cu1425   2.069       .  S
N1418      C1419   1.345       .  A
N1418     Cu1424   2.072       .  S
C1419      C1420   1.379       .  A
C1419      H1422   1.082       .  S
C1420      C1421   1.378       .  A
C1420      C1600   1.435       .  S
C1421      H1423   1.082       .  S
Cu1424     N1427   2.072       .  S
Cu1425     N1435   2.069       .  S
Cu1426     N1428   2.067       .  S
Cu1426     N1434   2.067       .  S
N1427      N1428   1.323       .  A
N1427      C1431   1.345       .  A
N1428      C1429   1.344       .  A
C1429      C1430   1.377       .  A
C1429      H1432   1.082       .  S
C1430      C1431   1.379       .  A
C1430      C1630   1.433       .  S
C1431      H1433   1.082       .  S
N1434      N1435   1.322       .  A
N1434      C1438   1.345       .  A
N1435      C1436   1.344       .  A
C1436      C1437   1.378       .  A
C1436      H1439   1.082       .  S
C1437      C1438   1.379       .  A
C1437      C1614   1.434       .  S
C1438      H1440   1.082       .  S
N1441      N1442   1.322       .  A
N1441      C1445   1.346       .  A
N1441     Cu1449   2.073       .  S
N1442      C1443   1.343       .  A
N1442     Cu1448   2.059       .  S
C1443      C1444   1.377       .  A
C1443      H1446   1.082       .  S
C1444      C1445   1.380       .  A
C1444      C1572   1.434       .  S
C1445      H1447   1.082       .  S
Cu1448     N1451   2.059       .  S
Cu1449     N1459   2.073       .  S
Cu1450     N1452   2.078       .  S
Cu1450     N1458   2.079       .  S
N1451      N1452   1.323       .  A
N1451      C1455   1.342       .  A
N1452      C1453   1.347       .  A
C1453      C1454   1.381       .  A
C1453      H1456   1.082       .  S
C1454      C1455   1.376       .  A
C1454      C1588   1.433       .  S
C1455      H1457   1.082       .  S
N1458      N1459   1.324       .  A
N1458      C1462   1.347       .  A
N1459      C1460   1.345       .  A
C1460      C1461   1.378       .  A
C1460      H1463   1.082       .  S
C1461      C1462   1.380       .  A
C1461      C2456   1.437       .  S
C1462      H1464   1.082       .  S
N1465      N1466   1.323       .  A
N1465      C1469   1.347       .  A
N1465     Cu1473   2.076       .  S
N1466      C1467   1.345       .  A
N1466     Cu1472   2.071       .  S
C1467      C1468   1.379       .  A
C1467      H1470   1.082       .  S
C1468      C1469   1.381       .  A
C1468      C1558   1.437       .  S
C1469      H1471   1.082       .  S
Cu1472     N1475   2.071       .  S
Cu1473     N1483   2.077       .  S
Cu1474     N1476   2.078       .  S
Cu1474     N1482   2.078       .  S
N1475      N1476   1.323       .  A
N1475      C1479   1.344       .  A
N1476      C1477   1.347       .  A
C1477      C1478   1.381       .  A
C1477      H1480   1.082       .  S
C1478      C1479   1.378       .  A
C1478      C1966   1.438       .  S
C1479      H1481   1.082       .  S
N1482      N1483   1.324       .  A
N1482      C1486   1.346       .  A
N1483      C1484   1.346       .  A
C1484      C1485   1.379       .  A
C1484      H1487   1.082       .  S
C1485      C1486   1.379       .  A
C1485      C2246   1.438       .  S
C1486      H1488   1.082       .  S
N1489      N1490   1.322       .  A
N1489      C1493   1.347       .  A
N1489     Cu1497   2.074       .  S
N1490      C1491   1.344       .  A
N1490     Cu1496   2.069       .  S
C1491      C1492   1.379       .  A
C1491      H1494   1.082       .  S
C1492      C1493   1.381       .  A
C1492      C1544   1.438       .  S
C1493      H1495   1.082       .  S
Cu1496     N1499   2.069       .  S
Cu1497     N1507   2.075       .  S
Cu1498     N1500   2.079       .  S
Cu1498     N1506   2.079       .  S
N1499      N1500   1.323       .  A
N1499      C1503   1.344       .  A
N1500      C1501   1.347       .  A
C1501      C1502   1.381       .  A
C1501      H1504   1.082       .  S
C1502      C1503   1.378       .  A
C1502      C1798   1.437       .  S
C1503      H1505   1.082       .  S
N1506      N1507   1.324       .  A
N1506      C1510   1.347       .  A
N1507      C1508   1.345       .  A
C1508      C1509   1.378       .  A
C1508      H1511   1.082   1_455  S
C1509      C1510   1.380       .  A
C1509      C2848   1.437       .  S
C1510      H1512   1.082       .  S
N1513      N1514   1.323       .  A
N1513      C1517   1.345       .  A
N1513     Cu1521   2.075       .  S
N1514      C1515   1.346       .  A
N1514     Cu1520   2.069       .  S
C1515      C1516   1.379       .  A
C1515      H1518   1.082       .  S
C1516      C1517   1.380       .  A
C1516      C1560   1.437   1_455  S
C1517      H1519   1.082   1_455  S
Cu1520     N1523   2.069       .  S
Cu1521     N1531   2.075       .  S
Cu1522     N1524   2.077       .  S
Cu1522     N1530   2.077       .  S
N1523      N1524   1.323       .  A
N1523      C1527   1.344       .  A
N1524      C1525   1.346       .  A
C1525      C1526   1.380       .  A
C1525      H1528   1.082       .  S
C1526      C1527   1.378       .  A
C1526      C1574   1.435   1_565  S
C1527      H1529   1.082       .  S
N1530      N1531   1.324       .  A
N1530      C1534   1.346       .  A
N1531      C1532   1.346       .  A
C1532      C1533   1.379       .  A
C1532      H1535   1.082       .  S
C1533      C1534   1.380       .  A
C1533      C1546   1.438       .  S
C1534      H1536   1.082       .  S
C1537      C1538   1.401       .  A
C1537      C1542   1.402       .  A
C1537      C1545   1.441       .  S
C1538      C1539   1.399       .  A
C1538      H1547   1.083       .  S
C1539      C1540   1.401       .  A
C1539      H1548   1.083       .  S
C1540      C1541   1.402       .  A
C1540      C1543   1.441       .  S
C1541      C1542   1.400       .  A
C1541      H1549   1.083   1_455  S
C1542      H1550   1.083       .  S
C1543      C1544   1.206       .  T
C1545      C1546   1.207       .  T
C1551      C1552   1.402       .  A
C1551      C1556   1.400       .  A
C1551      C1559   1.440       .  S
C1552      C1553   1.401       .  A
C1552      H1561   1.083       .  S
C1553      C1554   1.402       .  A
C1553      H1562   1.083       .  S
C1554      C1555   1.401       .  A
C1554      C1557   1.440       .  S
C1555      C1556   1.397       .  A
C1555      H1563   1.083       .  S
C1556      H1564   1.084       .  S
C1557      C1558   1.206       .  T
C1559      C1560   1.206       .  T
C1565      C1566   1.401       .  A
C1565      C1570   1.401       .  A
C1565      C1573   1.438       .  S
C1566      C1567   1.399       .  A
C1566      H1575   1.083       .  S
C1567      C1568   1.401       .  A
C1567      H1576   1.083       .  S
C1568      C1569   1.401       .  A
C1568      C1571   1.437       .  S
C1569      C1570   1.398       .  A
C1569      H1577   1.084       .  S
C1570      H1578   1.083       .  S
C1571      C1572   1.204       .  T
C1573      C1574   1.205       .  T
C1579      C1580   1.401       .  A
C1579      C1584   1.400       .  A
C1579      C1587   1.436       .  S
C1580      C1581   1.397       .  A
C1580      H1589   1.084       .  S
C1581      C1582   1.401       .  A
C1581      H1590   1.084       .  S
C1582      C1583   1.401       .  A
C1582      C1585   1.436       .  S
C1583      C1584   1.398       .  A
C1583      H1591   1.083       .  S
C1584      H1592   1.083       .  S
C1585      C1586   1.204       .  T
C1587      C1588   1.204       .  T
C1593      C1594   1.401       .  A
C1593      C1598   1.401       .  A
C1593      C1601   1.438       .  S
C1594      C1595   1.398       .  A
C1594      H1603   1.083       .  S
C1595      C1596   1.401       .  A
C1595      H1604   1.084       .  S
C1596      C1597   1.401       .  A
C1596      C1599   1.438       .  S
C1597      C1598   1.399       .  A
C1597      H1605   1.083       .  S
C1598      H1606   1.083       .  S
C1599      C1600   1.205       .  T
C1601      C1602   1.205       .  T
C1607      C1608   1.401       .  A
C1607      C1612   1.401       .  A
C1607      C1615   1.438       .  S
C1608      C1609   1.398       .  A
C1608      H1617   1.083       .  S
C1609      C1610   1.401       .  A
C1609      H1618   1.084       .  S
C1610      C1611   1.401       .  A
C1610      C1613   1.437       .  S
C1611      C1612   1.399       .  A
C1611      H1619   1.083       .  S
C1612      H1620   1.083       .  S
C1613      C1614   1.204       .  T
C1615      C1616   1.205       .  T
C1621      C1622   1.401       .  A
C1621      C1626   1.401       .  A
C1621      C1629   1.436       .  S
C1622      C1623   1.398       .  A
C1622      H1631   1.083       .  S
C1623      C1624   1.401       .  A
C1623      H1632   1.083       .  S
C1624      C1625   1.401       .  A
C1624      C1627   1.437       .  S
C1625      C1626   1.398       .  A
C1625      H1633   1.083       .  S
C1626      H1634   1.084       .  S
C1627      C1628   1.204       .  T
C1629      C1630   1.204       .  T
C1635      C1636   1.401       .  A
C1635      C1640   1.401       .  A
C1635      C1643   1.438       .  S
C1636      C1637   1.397       .  A
C1636      H1645   1.084       .  S
C1637      C1638   1.400       .  A
C1637      H1646   1.084       .  S
C1638      C1639   1.402       .  A
C1638      C1641   1.438       .  S
C1639      C1640   1.400       .  A
C1639      H1647   1.083       .  S
C1640      H1648   1.083       .  S
C1641      C1642   1.205       .  T
C1643      C1644   1.205       .  T
C1649      C1650   1.401       .  A
C1649      C1654   1.401       .  A
C1649      C1657   1.439       .  S
C1650      C1651   1.398       .  A
C1650      H1659   1.083       .  S
C1651      C1652   1.401       .  A
C1651      H1660   1.084       .  S
C1652      C1653   1.402       .  A
C1652      C1655   1.439       .  S
C1653      C1654   1.399       .  A
C1653      H1661   1.083       .  S
C1654      H1662   1.084       .  S
C1655      C1656   1.205       .  T
C1657      C1658   1.206       .  T
C1663      C1664   1.401       .  A
C1663      C1668   1.401       .  A
C1663      C1671   1.438       .  S
C1664      C1665   1.399   1_455  A
C1664      H1673   1.083       .  S
C1665      C1666   1.401       .  A
C1665      H1674   1.083       .  S
C1666      C1667   1.401   1_655  A
C1666      C1669   1.438       .  S
C1667      C1668   1.398       .  A
C1667      H1675   1.084       .  S
C1668      H1676   1.084       .  S
C1669      C1670   1.205       .  T
C1671      C1672   1.204       .  T
C1677      C1678   1.401       .  A
C1677      C1682   1.401       .  A
C1677      C1685   1.437       .  S
C1678      C1679   1.399       .  A
C1678      H1687   1.083       .  S
C1679      C1680   1.401       .  A
C1679      H1688   1.084       .  S
C1680      C1681   1.401       .  A
C1680      C1683   1.437       .  S
C1681      C1682   1.397       .  A
C1681      H1689   1.083       .  S
C1682      H1690   1.084       .  S
C1683      C1684   1.204   1_556  T
C1685      C1686   1.204       .  T
C1691      C1692   1.401       .  A
C1691      C1696   1.401       .  A
C1691      C1699   1.438       .  S
C1692      C1693   1.398       .  A
C1692      H1701   1.083       .  S
C1693      C1694   1.401       .  A
C1693      H1702   1.083       .  S
C1694      C1695   1.401       .  A
C1694      C1697   1.438       .  S
C1695      C1696   1.398       .  A
C1695      H1703   1.083       .  S
C1696      H1704   1.083       .  S
C1697      C1698   1.205       .  T
C1699      C1700   1.205       .  T
C1705      C1706   1.402       .  A
C1705      C1710   1.401       .  A
C1705      C1713   1.441   1_565  S
C1706      C1707   1.400       .  A
C1706      H1715   1.083       .  S
C1707      C1708   1.402       .  A
C1707      H1716   1.083       .  S
C1708      C1709   1.401       .  A
C1708      C1711   1.441       .  S
C1709      C1710   1.398       .  A
C1709      H1717   1.083       .  S
C1710      H1718   1.084       .  S
C1711      C1712   1.206       .  T
C1713      C1714   1.206       .  T
C1719      C1720   1.401       .  A
C1719      C1724   1.402       .  A
C1719      C1727   1.439       .  S
C1720      C1721   1.398       .  A
C1720      H1729   1.083       .  S
C1721      C1722   1.401       .  A
C1721      H1730   1.084       .  S
C1722      C1723   1.401       .  A
C1722      C1725   1.440       .  S
C1723      C1724   1.400       .  A
C1723      H1731   1.083       .  S
C1724      H1732   1.083       .  S
C1725      C1726   1.206       .  T
C1727      C1728   1.205       .  T
C1733      C1734   1.401       .  A
C1733      C1738   1.401       .  A
C1733      C1741   1.439   1_554  S
C1734      C1735   1.399       .  A
C1734      H1743   1.084       .  S
C1735      C1736   1.401       .  A
C1735      H1744   1.083       .  S
C1736      C1737   1.401       .  A
C1736      C1739   1.439       .  S
C1737      C1738   1.399       .  A
C1737      H1745   1.083       .  S
C1738      H1746   1.083       .  S
C1739      C1740   1.205       .  T
C1741      C1742   1.205       .  T
C1747      C1748   1.401       .  A
C1747      C1752   1.401       .  A
C1747      C1755   1.438       .  S
C1748      C1749   1.398       .  A
C1748      H1757   1.083       .  S
C1749      C1750   1.401       .  A
C1749      H1758   1.083       .  S
C1750      C1751   1.401       .  A
C1750      C1753   1.438       .  S
C1751      C1752   1.398       .  A
C1751      H1759   1.083       .  S
C1752      H1760   1.084       .  S
C1753      C1754   1.205       .  T
C1755      C1756   1.205       .  T
C1761      C1762   1.401       .  A
C1761      C1766   1.401       .  A
C1761      C1769   1.438       .  S
C1762      C1763   1.399       .  A
C1762      H1771   1.083       .  S
C1763      C1764   1.401       .  A
C1763      H1772   1.083       .  S
C1764      C1765   1.401       .  A
C1764      C1767   1.438       .  S
C1765      C1766   1.398       .  A
C1765      H1773   1.084       .  S
C1766      H1774   1.083       .  S
C1767      C1768   1.205       .  T
C1769      C1770   1.205       .  T
C1775      C1776   1.401       .  A
C1775      C1780   1.401       .  A
C1775      C1783   1.439       .  S
C1776      C1777   1.398       .  A
C1776      H1785   1.083       .  S
C1777      C1778   1.401       .  A
C1777      H1786   1.084       .  S
C1778      C1779   1.401       .  A
C1778      C1781   1.439       .  S
C1779      C1780   1.399       .  A
C1779      H1787   1.083       .  S
C1780      H1788   1.083       .  S
C1781      C1782   1.205       .  T
C1783      C1784   1.205       .  T
C1789      C1790   1.401       .  A
C1789      C1794   1.401       .  A
C1789      C1797   1.440       .  S
C1790      C1791   1.399       .  A
C1790      H1799   1.083       .  S
C1791      C1792   1.401       .  A
C1791      H1800   1.084       .  S
C1792      C1793   1.401       .  A
C1792      C1795   1.439       .  S
C1793      C1794   1.399       .  A
C1793      H1801   1.083       .  S
C1794      H1802   1.083       .  S
C1795      C1796   1.206       .  T
C1797      C1798   1.206       .  T
C1803      C1804   1.401       .  A
C1803      C1808   1.400       .  A
C1803      C1811   1.437       .  S
C1804      C1805   1.399       .  A
C1804      H1813   1.083       .  S
C1805      C1806   1.401       .  A
C1805      H1814   1.083       .  S
C1806      C1807   1.401       .  A
C1806      C1809   1.437       .  S
C1807      C1808   1.397       .  A
C1807      H1815   1.083       .  S
C1808      H1816   1.084       .  S
C1809      C1810   1.204       .  T
C1811      C1812   1.204       .  T
C1817      C1818   1.401       .  A
C1817      C1822   1.402       .  A
C1817      C1825   1.441       .  S
C1818      C1819   1.399       .  A
C1818      H1827   1.083       .  S
C1819      C1820   1.401       .  A
C1819      H1828   1.084       .  S
C1820      C1821   1.402       .  A
C1820      C1823   1.441       .  S
C1821      C1822   1.400       .  A
C1821      H1829   1.083       .  S
C1822      H1830   1.083       .  S
C1823      C1824   1.206       .  T
C1825      C1826   1.207       .  T
C1831      C1832   1.401       .  A
C1831      C1836   1.401       .  A
C1831      C1839   1.437       .  S
C1832      C1833   1.397       .  A
C1832      H1841   1.084       .  S
C1833      C1834   1.401       .  A
C1833      H1842   1.083       .  S
C1834      C1835   1.401       .  A
C1834      C1837   1.437       .  S
C1835      C1836   1.399       .  A
C1835      H1843   1.083       .  S
C1836      H1844   1.083       .  S
C1837      C1838   1.204       .  T
C1839      C1840   1.204       .  T
C1845      C1846   1.401       .  A
C1845      C1850   1.401       .  A
C1845      C1853   1.438       .  S
C1846      C1847   1.398       .  A
C1846      H1855   1.083       .  S
C1847      C1848   1.401       .  A
C1847      H1856   1.083       .  S
C1848      C1849   1.401       .  A
C1848      C1851   1.438       .  S
C1849      C1850   1.399       .  A
C1849      H1857   1.083       .  S
C1850      H1858   1.084       .  S
C1851      C1852   1.205       .  T
C1853      C1854   1.205       .  T
C1859      C1860   1.401       .  A
C1859      C1864   1.401       .  A
C1859      C1867   1.437       .  S
C1860      C1861   1.399       .  A
C1860      H1869   1.083       .  S
C1861      C1862   1.401       .  A
C1861      H1870   1.083       .  S
C1862      C1863   1.401       .  A
C1862      C1865   1.438       .  S
C1863      C1864   1.398       .  A
C1863      H1871   1.084       .  S
C1864      H1872   1.083       .  S
C1865      C1866   1.205       .  T
C1867      C1868   1.204       .  T
C1873      C1874   1.402       .  A
C1873      C1878   1.400       .  A
C1873      C1881   1.439       .  S
C1874      C1875   1.400       .  A
C1874      H1883   1.083       .  S
C1875      C1876   1.401       .  A
C1875      H1884   1.083       .  S
C1876      C1877   1.401       .  A
C1876      C1879   1.439       .  S
C1877      C1878   1.397       .  A
C1877      H1885   1.083       .  S
C1878      H1886   1.084       .  S
C1879      C1880   1.205       .  T
C1881      C1882   1.205       .  T
C1887      C1888   1.402       .  A
C1887      C1892   1.401       .  A
C1887      C1895   1.440       .  S
C1888      C1889   1.400       .  A
C1888      H1897   1.084       .  S
C1889      C1890   1.402       .  A
C1889      H1898   1.083       .  S
C1890      C1891   1.401       .  A
C1890      C1893   1.440       .  S
C1891      C1892   1.398       .  A
C1891      H1899   1.084       .  S
C1892      H1900   1.083       .  S
C1893      C1894   1.206       .  T
C1895      C1896   1.206       .  T
C1901      C1902   1.401       .  A
C1901      C1906   1.401       .  A
C1901      C1909   1.439       .  S
C1902      C1903   1.399       .  A
C1902      H1911   1.084       .  S
C1903      C1904   1.402       .  A
C1903      H1912   1.083       .  S
C1904      C1905   1.401       .  A
C1904      C1907   1.439       .  S
C1905      C1906   1.398       .  A
C1905      H1913   1.084       .  S
C1906      H1914   1.083       .  S
C1907      C1908   1.205       .  T
C1909      C1910   1.205       .  T
C1915      C1916   1.401       .  A
C1915      C1920   1.401       .  A
C1915      C1923   1.439       .  S
C1916      C1917   1.398       .  A
C1916      H1925   1.083       .  S
C1917      C1918   1.401       .  A
C1917      H1926   1.083       .  S
C1918      C1919   1.401       .  A
C1918      C1921   1.439       .  S
C1919      C1920   1.399       .  A
C1919      H1927   1.083       .  S
C1920      H1928   1.083       .  S
C1921      C1922   1.205       .  T
C1923      C1924   1.205       .  T
C1929      C1930   1.401       .  A
C1929      C1934   1.402       .  A
C1929      C1937   1.440       .  S
C1930      C1931   1.398       .  A
C1930      H1939   1.084       .  S
C1931      C1932   1.401       .  A
C1931      H1940   1.083       .  S
C1932      C1933   1.402       .  A
C1932      C1935   1.440       .  S
C1933      C1934   1.400       .  A
C1933      H1941   1.083       .  S
C1934      H1942   1.083       .  S
C1935      C1936   1.206       .  T
C1937      C1938   1.206       .  T
C1943      C1944   1.402       .  A
C1943      C1948   1.401       .  A
C1943      C1951   1.442       .  S
C1944      C1945   1.401       .  A
C1944      H1953   1.083       .  S
C1945      C1946   1.402       .  A
C1945      H1954   1.083       .  S
C1946      C1947   1.402       .  A
C1946      C1949   1.441       .  S
C1947      C1948   1.399       .  A
C1947      H1955   1.084       .  S
C1948      H1956   1.083       .  S
C1949      C1950   1.207       .  T
C1951      C1952   1.207       .  T
C1957      C1958   1.401       .  A
C1957      C1962   1.402       .  A
C1957      C1965   1.441       .  S
C1958      C1959   1.400       .  A
C1958      H1967   1.083       .  S
C1959      C1960   1.402       .  A
C1959      H1968   1.083       .  S
C1960      C1961   1.401       .  A
C1960      C1963   1.441       .  S
C1961      C1962   1.399       .  A
C1961      H1969   1.083       .  S
C1962      H1970   1.083       .  S
C1963      C1964   1.206       .  T
C1965      C1966   1.207       .  T
C1971      C1972   1.400       .  A
C1971      C1976   1.401       .  A
C1971      C1979   1.437       .  S
C1972      C1973   1.397       .  A
C1972      H1981   1.084       .  S
C1973      C1974   1.401       .  A
C1973      H1982   1.083       .  S
C1974      C1975   1.401       .  A
C1974      C1977   1.437       .  S
C1975      C1976   1.399       .  A
C1975      H1983   1.083       .  S
C1976      H1984   1.083       .  S
C1977      C1978   1.204       .  T
C1979      C1980   1.204       .  T
C1985      C1986   1.401       .  A
C1985      C1990   1.402       .  A
C1985      C1993   1.440       .  S
C1986      C1987   1.399       .  A
C1986      H1995   1.083       .  S
C1987      C1988   1.402       .  A
C1987      H1996   1.084       .  S
C1988      C1989   1.401       .  A
C1988      C1991   1.440       .  S
C1989      C1990   1.399       .  A
C1989      H1997   1.083       .  S
C1990      H1998   1.084       .  S
C1991      C1992   1.206       .  T
C1993      C1994   1.206       .  T
C1999      C2000   1.401       .  A
C1999      C2004   1.401       .  A
C1999      C2007   1.438       .  S
C2000      C2001   1.399       .  A
C2000      H2009   1.083       .  S
C2001      C2002   1.401       .  A
C2001      H2010   1.083       .  S
C2002      C2003   1.401       .  A
C2002      C2005   1.438       .  S
C2003      C2004   1.398       .  A
C2003      H2011   1.083       .  S
C2004      H2012   1.084       .  S
C2005      C2006   1.205       .  T
C2007      C2008   1.205       .  T
C2013      C2014   1.401       .  A
C2013      C2018   1.402       .  A
C2013      C2021   1.440       .  S
C2014      C2015   1.398       .  A
C2014      H2023   1.083       .  S
C2015      C2016   1.401       .  A
C2015      H2024   1.083       .  S
C2016      C2017   1.402       .  A
C2016      C2019   1.440       .  S
C2017      C2018   1.400       .  A
C2017      H2025   1.083       .  S
C2018      H2026   1.083       .  S
C2019      C2020   1.206       .  T
C2021      C2022   1.206       .  T
C2027      C2028   1.401       .  A
C2027      C2032   1.401       .  A
C2027      C2035   1.439       .  S
C2028      C2029   1.399       .  A
C2028      H2037   1.083       .  S
C2029      C2030   1.401       .  A
C2029      H2038   1.083       .  S
C2030      C2031   1.401       .  A
C2030      C2033   1.439       .  S
C2031      C2032   1.398       .  A
C2031      H2039   1.083       .  S
C2032      H2040   1.084       .  S
C2033      C2034   1.205       .  T
C2035      C2036   1.205       .  T
C2041      C2042   1.401       .  A
C2041      C2046   1.402       .  A
C2041      C2049   1.438       .  S
C2042      C2043   1.398       .  A
C2042      H2051   1.084       .  S
C2043      C2044   1.401       .  A
C2043      H2052   1.083       .  S
C2044      C2045   1.401       .  A
C2044      C2047   1.439       .  S
C2045      C2046   1.400       .  A
C2045      H2053   1.083       .  S
C2046      H2054   1.083       .  S
C2047      C2048   1.205       .  T
C2049      C2050   1.205       .  T
C2055      C2056   1.401       .  A
C2055      C2060   1.401       .  A
C2055      C2063   1.438       .  S
C2056      C2057   1.398       .  A
C2056      H2065   1.083       .  S
C2057      C2058   1.401       .  A
C2057      H2066   1.083       .  S
C2058      C2059   1.401       .  A
C2058      C2061   1.438       .  S
C2059      C2060   1.399       .  A
C2059      H2067   1.083       .  S
C2060      H2068   1.083       .  S
C2061      C2062   1.205       .  T
C2063      C2064   1.205       .  T
C2069      C2070   1.401       .  A
C2069      C2074   1.401       .  A
C2069      C2077   1.441       .  S
C2070      C2071   1.399       .  A
C2070      H2079   1.083       .  S
C2071      C2072   1.401       .  A
C2071      H2080   1.084       .  S
C2072      C2073   1.402       .  A
C2072      C2075   1.441       .  S
C2073      C2074   1.400       .  A
C2073      H2081   1.083       .  S
C2074      H2082   1.084       .  S
C2075      C2076   1.206       .  T
C2077      C2078   1.206       .  T
C2083      C2084   1.401       .  A
C2083      C2088   1.401       .  A
C2083      C2091   1.438       .  S
C2084      C2085   1.398       .  A
C2084      H2093   1.084       .  S
C2085      C2086   1.401       .  A
C2085      H2094   1.083       .  S
C2086      C2087   1.401       .  A
C2086      C2089   1.438       .  S
C2087      C2088   1.399       .  A
C2087      H2095   1.083       .  S
C2088      H2096   1.083       .  S
C2089      C2090   1.205       .  T
C2091      C2092   1.205       .  T
C2097      C2098   1.401       .  A
C2097      C2102   1.401       .  A
C2097      C2105   1.440       .  S
C2098      C2099   1.399       .  A
C2098      H2107   1.083       .  S
C2099      C2100   1.401       .  A
C2099      H2108   1.083       .  S
C2100      C2101   1.402       .  A
C2100      C2103   1.440       .  S
C2101      C2102   1.399       .  A
C2101      H2109   1.083       .  S
C2102      H2110   1.083       .  S
C2103      C2104   1.206       .  T
C2105      C2106   1.206       .  T
C2111      C2112   1.400       .  A
C2111      C2116   1.401       .  A
C2111      C2119   1.437       .  S
C2112      C2113   1.397       .  A
C2112      H2121   1.084       .  S
C2113      C2114   1.401       .  A
C2113      H2122   1.083       .  S
C2114      C2115   1.401       .  A
C2114      C2117   1.438       .  S
C2115      C2116   1.399       .  A
C2115      H2123   1.084       .  S
C2116      H2124   1.083       .  S
C2117      C2118   1.205       .  T
C2119      C2120   1.204       .  T
C2125      C2126   1.402       .  A
C2125      C2130   1.402       .  A
C2125      C2133   1.442       .  S
C2126      C2127   1.400       .  A
C2126      H2135   1.083       .  S
C2127      C2128   1.401       .  A
C2127      H2136   1.083       .  S
C2128      C2129   1.402       .  A
C2128      C2131   1.442       .  S
C2129      C2130   1.400       .  A
C2129      H2137   1.083       .  S
C2130      H2138   1.083       .  S
C2131      C2132   1.207       .  T
C2133      C2134   1.207       .  T
C2139      C2140   1.401       .  A
C2139      C2144   1.401       .  A
C2139      C2147   1.439       .  S
C2140      C2141   1.399       .  A
C2140      H2149   1.083       .  S
C2141      C2142   1.401       .  A
C2141      H2150   1.083       .  S
C2142      C2143   1.401       .  A
C2142      C2145   1.439       .  S
C2143      C2144   1.399       .  A
C2143      H2151   1.083       .  S
C2144      H2152   1.084       .  S
C2145      C2146   1.206       .  T
C2147      C2148   1.206       .  T
C2153      C2154   1.401       .  A
C2153      C2158   1.401       .  A
C2153      C2161   1.438   1_655  S
C2154      C2155   1.398       .  A
C2154      H2163   1.084   1_655  S
C2155      C2156   1.401       .  A
C2155      H2164   1.083       .  S
C2156      C2157   1.401       .  A
C2156      C2159   1.438       .  S
C2157      C2158   1.399       .  A
C2157      H2165   1.083       .  S
C2158      H2166   1.083       .  S
C2159      C2160   1.205       .  T
C2161      C2162   1.205       .  T
C2167      C2168   1.402       .  A
C2167      C2172   1.400       .  A
C2167      C2175   1.436       .  S
C2168      C2169   1.399       .  A
C2168      H2177   1.083       .  S
C2169      C2170   1.401       .  A
C2169      H2178   1.083       .  S
C2170      C2171   1.400       .  A
C2170      C2173   1.436       .  S
C2171      C2172   1.397       .  A
C2171      H2179   1.084       .  S
C2172      H2180   1.083       .  S
C2173      C2174   1.204       .  T
C2175      C2176   1.204       .  T
C2181      C2182   1.401   1_565  A
C2181      C2186   1.402       .  A
C2181      C2189   1.439       .  S
C2182      C2183   1.398       .  A
C2182      H2191   1.084   1_545  S
C2183      C2184   1.401       .  A
C2183      H2192   1.083       .  S
C2184      C2185   1.402       .  A
C2184      C2187   1.439       .  S
C2185      C2186   1.400   1_545  A
C2185      H2193   1.083       .  S
C2186      H2194   1.083       .  S
C2187      C2188   1.205       .  T
C2189      C2190   1.205       .  T
C2195      C2196   1.401       .  A
C2195      C2200   1.401       .  A
C2195      C2203   1.438       .  S
C2196      C2197   1.398       .  A
C2196      H2205   1.083       .  S
C2197      C2198   1.401       .  A
C2197      H2206   1.084       .  S
C2198      C2199   1.401       .  A
C2198      C2201   1.439       .  S
C2199      C2200   1.399       .  A
C2199      H2207   1.083       .  S
C2200      H2208   1.084       .  S
C2201      C2202   1.205       .  T
C2203      C2204   1.205       .  T
C2209      C2210   1.401       .  A
C2209      C2214   1.401       .  A
C2209      C2217   1.437       .  S
C2210      C2211   1.398       .  A
C2210      H2219   1.084       .  S
C2211      C2212   1.401       .  A
C2211      H2220   1.083   1_655  S
C2212      C2213   1.401       .  A
C2212      C2215   1.437       .  S
C2213      C2214   1.398       .  A
C2213      H2221   1.084       .  S
C2214      H2222   1.083       .  S
C2215      C2216   1.204   1_655  T
C2217      C2218   1.204       .  T
C2223      C2224   1.401       .  A
C2223      C2228   1.401       .  A
C2223      C2231   1.438       .  S
C2224      C2225   1.398       .  A
C2224      H2233   1.083       .  S
C2225      C2226   1.401       .  A
C2225      H2234   1.083       .  S
C2226      C2227   1.401       .  A
C2226      C2229   1.438       .  S
C2227      C2228   1.398       .  A
C2227      H2235   1.083       .  S
C2228      H2236   1.083       .  S
C2229      C2230   1.205       .  T
C2231      C2232   1.205       .  T
C2237      C2238   1.402       .  A
C2237      C2242   1.401       .  A
C2237      C2245   1.441       .  S
C2238      C2239   1.400       .  A
C2238      H2247   1.083       .  S
C2239      C2240   1.402       .  A
C2239      H2248   1.083       .  S
C2240      C2241   1.401       .  A
C2240      C2243   1.441       .  S
C2241      C2242   1.399       .  A
C2241      H2249   1.083       .  S
C2242      H2250   1.084   1_545  S
C2243      C2244   1.207       .  T
C2245      C2246   1.207   1_545  T
C2251      C2252   1.402       .  A
C2251      C2256   1.402       .  A
C2251      C2259   1.442       .  S
C2252      C2253   1.400       .  A
C2252      H2261   1.083       .  S
C2253      C2254   1.402       .  A
C2253      H2262   1.083       .  S
C2254      C2255   1.401       .  A
C2254      C2257   1.442       .  S
C2255      C2256   1.400       .  A
C2255      H2263   1.083       .  S
C2256      H2264   1.083       .  S
C2257      C2258   1.207       .  T
C2259      C2260   1.207       .  T
C2265      C2266   1.401       .  A
C2265      C2270   1.402       .  A
C2265      C2273   1.441       .  S
C2266      C2267   1.400       .  A
C2266      H2275   1.083       .  S
C2267      C2268   1.402       .  A
C2267      H2276   1.084       .  S
C2268      C2269   1.401       .  A
C2268      C2271   1.441   1_556  S
C2269      C2270   1.400       .  A
C2269      H2277   1.083   1_556  S
C2270      H2278   1.084       .  S
C2271      C2272   1.207       .  T
C2273      C2274   1.207       .  T
C2279      C2280   1.400       .  A
C2279      C2284   1.402       .  A
C2279      C2287   1.438       .  S
C2280      C2281   1.398       .  A
C2280      H2289   1.084       .  S
C2281      C2282   1.401       .  A
C2281      H2290   1.083       .  S
C2282      C2283   1.401       .  A
C2282      C2285   1.438       .  S
C2283      C2284   1.399       .  A
C2283      H2291   1.084       .  S
C2284      H2292   1.083       .  S
C2285      C2286   1.205       .  T
C2287      C2288   1.205       .  T
C2293      C2294   1.401       .  A
C2293      C2298   1.402       .  A
C2293      C2301   1.440   1_565  S
C2294      C2295   1.399       .  A
C2294      H2303   1.083       .  S
C2295      C2296   1.402       .  A
C2295      H2304   1.084       .  S
C2296      C2297   1.401       .  A
C2296      C2299   1.440       .  S
C2297      C2298   1.399       .  A
C2297      H2305   1.083       .  S
C2298      H2306   1.083       .  S
C2299      C2300   1.206       .  T
C2301      C2302   1.206       .  T
C2307      C2308   1.401       .  A
C2307      C2312   1.401       .  A
C2307      C2315   1.440       .  S
C2308      C2309   1.399       .  A
C2308      H2317   1.083       .  S
C2309      C2310   1.401       .  A
C2309      H2318   1.083       .  S
C2310      C2311   1.401       .  A
C2310      C2313   1.440       .  S
C2311      C2312   1.399       .  A
C2311      H2319   1.083       .  S
C2312      H2320   1.083       .  S
C2313      C2314   1.206       .  T
C2315      C2316   1.206       .  T
C2321      C2322   1.401       .  A
C2321      C2326   1.401       .  A
C2321      C2329   1.437       .  S
C2322      C2323   1.398       .  A
C2322      H2331   1.083       .  S
C2323      C2324   1.401       .  A
C2323      H2332   1.084       .  S
C2324      C2325   1.401       .  A
C2324      C2327   1.437       .  S
C2325      C2326   1.398       .  A
C2325      H2333   1.083       .  S
C2326      H2334   1.084       .  S
C2327      C2328   1.204       .  T
C2329      C2330   1.204       .  T
C2335      C2336   1.402   1_554  A
C2335      C2340   1.402       .  A
C2335      C2343   1.443       .  S
C2336      C2337   1.400       .  A
C2336      H2345   1.083       .  S
C2337      C2338   1.402       .  A
C2337      H2346   1.084       .  S
C2338      C2339   1.402       .  A
C2338      C2341   1.443       .  S
C2339      C2340   1.400   1_556  A
C2339      H2347   1.083       .  S
C2340      H2348   1.084       .  S
C2341      C2342   1.208       .  T
C2343      C2344   1.208       .  T
C2349      C2350   1.402       .  A
C2349      C2354   1.400       .  A
C2349      C2357   1.439       .  S
C2350      C2351   1.400       .  A
C2350      H2359   1.083       .  S
C2351      C2352   1.402       .  A
C2351      H2360   1.083       .  S
C2352      C2353   1.401       .  A
C2352      C2355   1.440       .  S
C2353      C2354   1.397       .  A
C2353      H2361   1.083       .  S
C2354      H2362   1.084       .  S
C2355      C2356   1.206       .  T
C2357      C2358   1.206       .  T
C2363      C2364   1.402       .  A
C2363      C2368   1.400       .  A
C2363      C2371   1.438       .  S
C2364      C2365   1.400       .  A
C2364      H2373   1.083       .  S
C2365      C2366   1.402   1_545  A
C2365      H2374   1.083       .  S
C2366      C2367   1.401   1_565  A
C2366      C2369   1.438       .  S
C2367      C2368   1.397       .  A
C2367      H2375   1.084   1_545  S
C2368      H2376   1.083       .  S
C2369      C2370   1.205       .  T
C2371      C2372   1.205       .  T
C2377      C2378   1.400       .  A
C2377      C2382   1.401       .  A
C2377      C2385   1.435       .  S
C2378      C2379   1.397       .  A
C2378      H2387   1.084       .  S
C2379      C2380   1.401       .  A
C2379      H2388   1.084       .  S
C2380      C2381   1.400       .  A
C2380      C2383   1.435       .  S
C2381      C2382   1.397       .  A
C2381      H2389   1.083       .  S
C2382      H2390   1.083       .  S
C2383      C2384   1.203       .  T
C2385      C2386   1.203       .  T
C2391      C2392   1.402       .  A
C2391      C2396   1.401       .  A
C2391      C2399   1.440       .  S
C2392      C2393   1.401       .  A
C2392      H2401   1.083       .  S
C2393      C2394   1.402       .  A
C2393      H2402   1.083       .  S
C2394      C2395   1.400       .  A
C2394      C2397   1.440       .  S
C2395      C2396   1.397       .  A
C2395      H2403   1.084       .  S
C2396      H2404   1.084       .  S
C2397      C2398   1.206       .  T
C2399      C2400   1.206       .  T
C2405      C2406   1.402       .  A
C2405      C2410   1.401       .  A
C2405      C2413   1.440       .  S
C2406      C2407   1.400       .  A
C2406      H2415   1.083       .  S
C2407      C2408   1.402       .  A
C2407      H2416   1.083       .  S
C2408      C2409   1.401       .  A
C2408      C2411   1.440       .  S
C2409      C2410   1.398       .  A
C2409      H2417   1.083       .  S
C2410      H2418   1.084       .  S
C2411      C2412   1.206       .  T
C2413      C2414   1.206       .  T
C2419      C2420   1.401       .  A
C2419      C2424   1.401       .  A
C2419      C2427   1.438       .  S
C2420      C2421   1.398       .  A
C2420      H2429   1.084       .  S
C2421      C2422   1.401       .  A
C2421      H2430   1.083       .  S
C2422      C2423   1.401       .  A
C2422      C2425   1.438       .  S
C2423      C2424   1.399       .  A
C2423      H2431   1.083       .  S
C2424      H2432   1.083       .  S
C2425      C2426   1.205       .  T
C2427      C2428   1.205       .  T
C2433      C2434   1.401       .  A
C2433      C2438   1.401       .  A
C2433      C2441   1.438       .  S
C2434      C2435   1.398       .  A
C2434      H2443   1.083       .  S
C2435      C2436   1.401       .  A
C2435      H2444   1.084       .  S
C2436      C2437   1.401       .  A
C2436      C2439   1.438       .  S
C2437      C2438   1.399       .  A
C2437      H2445   1.083       .  S
C2438      H2446   1.083       .  S
C2439      C2440   1.205       .  T
C2441      C2442   1.205       .  T
C2447      C2448   1.402       .  A
C2447      C2452   1.401       .  A
C2447      C2455   1.440       .  S
C2448      C2449   1.399       .  A
C2448      H2457   1.083       .  S
C2449      C2450   1.401       .  A
C2449      H2458   1.084       .  S
C2450      C2451   1.401       .  A
C2450      C2453   1.440       .  S
C2451      C2452   1.399       .  A
C2451      H2459   1.083       .  S
C2452      H2460   1.084       .  S
C2453      C2454   1.206       .  T
C2455      C2456   1.206       .  T
C2461      C2462   1.401       .  A
C2461      C2466   1.401       .  A
C2461      C2469   1.439       .  S
C2462      C2463   1.399       .  A
C2462      H2471   1.083       .  S
C2463      C2464   1.402       .  A
C2463      H2472   1.083       .  S
C2464      C2465   1.401       .  A
C2464      C2467   1.439       .  S
C2465      C2466   1.398       .  A
C2465      H2473   1.083       .  S
C2466      H2474   1.083       .  S
C2467      C2468   1.205       .  T
C2469      C2470   1.205       .  T
C2475      C2476   1.401       .  A
C2475      C2480   1.401       .  A
C2475      C2483   1.436       .  S
C2476      C2477   1.397       .  A
C2476      H2485   1.084       .  S
C2477      C2478   1.400       .  A
C2477      H2486   1.084       .  S
C2478      C2479   1.401       .  A
C2478      C2481   1.436       .  S
C2479      C2480   1.399       .  A
C2479      H2487   1.083       .  S
C2480      H2488   1.083       .  S
C2481      C2482   1.204       .  T
C2483      C2484   1.204       .  T
C2489      C2490   1.401       .  A
C2489      C2494   1.402       .  A
C2489      C2497   1.441       .  S
C2490      C2491   1.399       .  A
C2490      H2499   1.084       .  S
C2491      C2492   1.401   1_545  A
C2491      H2500   1.083   1_545  S
C2492      C2493   1.402       .  A
C2492      C2495   1.442       .  S
C2493      C2494   1.400   1_565  A
C2493      H2501   1.083       .  S
C2494      H2502   1.083       .  S
C2495      C2496   1.207       .  T
C2497      C2498   1.207       .  T
C2503      C2504   1.402       .  A
C2503      C2508   1.401       .  A
C2503      C2511   1.440       .  S
C2504      C2505   1.400       .  A
C2504      H2513   1.083       .  S
C2505      C2506   1.402       .  A
C2505      H2514   1.083       .  S
C2506      C2507   1.401       .  A
C2506      C2509   1.440       .  S
C2507      C2508   1.398       .  A
C2507      H2515   1.083       .  S
C2508      H2516   1.083       .  S
C2509      C2510   1.206       .  T
C2511      C2512   1.206       .  T
C2517      C2518   1.401       .  A
C2517      C2522   1.402       .  A
C2517      C2525   1.440       .  S
C2518      C2519   1.399       .  A
C2518      H2527   1.083       .  S
C2519      C2520   1.401       .  A
C2519      H2528   1.083       .  S
C2520      C2521   1.402       .  A
C2520      C2523   1.440       .  S
C2521      C2522   1.400       .  A
C2521      H2529   1.083       .  S
C2522      H2530   1.083       .  S
C2523      C2524   1.206       .  T
C2525      C2526   1.206       .  T
C2531      C2532   1.401       .  A
C2531      C2536   1.401       .  A
C2531      C2539   1.438       .  S
C2532      C2533   1.399       .  A
C2532      H2541   1.083       .  S
C2533      C2534   1.401       .  A
C2533      H2542   1.083       .  S
C2534      C2535   1.401       .  A
C2534      C2537   1.438       .  S
C2535      C2536   1.398       .  A
C2535      H2543   1.084       .  S
C2536      H2544   1.083       .  S
C2537      C2538   1.205       .  T
C2539      C2540   1.205       .  T
C2545      C2546   1.401       .  A
C2545      C2550   1.401       .  A
C2545      C2553   1.437       .  S
C2546      C2547   1.398       .  A
C2546      H2555   1.084       .  S
C2547      C2548   1.401       .  A
C2547      H2556   1.083       .  S
C2548      C2549   1.401       .  A
C2548      C2551   1.437       .  S
C2549      C2550   1.398       .  A
C2549      H2557   1.084       .  S
C2550      H2558   1.083       .  S
C2551      C2552   1.204       .  T
C2553      C2554   1.204       .  T
C2559      C2560   1.402       .  A
C2559      C2564   1.402       .  A
C2559      C2567   1.442       .  S
C2560      C2561   1.400   1_556  A
C2560      H2569   1.083       .  S
C2561      C2562   1.402       .  A
C2561      H2570   1.083       .  S
C2562      C2563   1.401   1_554  A
C2562      C2565   1.442       .  S
C2563      C2564   1.399       .  A
C2563      H2571   1.083       .  S
C2564      H2572   1.083       .  S
C2565      C2566   1.207       .  T
C2567      C2568   1.207       .  T
C2573      C2574   1.401       .  A
C2573      C2578   1.402       .  A
C2573      C2581   1.441       .  S
C2574      C2575   1.399       .  A
C2574      H2583   1.083       .  S
C2575      C2576   1.401       .  A
C2575      H2584   1.083       .  S
C2576      C2577   1.402       .  A
C2576      C2579   1.442       .  S
C2577      C2578   1.400       .  A
C2577      H2585   1.083       .  S
C2578      H2586   1.083       .  S
C2579      C2580   1.207       .  T
C2581      C2582   1.207       .  T
C2587      C2588   1.401       .  A
C2587      C2592   1.402       .  A
C2587      C2595   1.440       .  S
C2588      C2589   1.399       .  A
C2588      H2597   1.083       .  S
C2589      C2590   1.401       .  A
C2589      H2598   1.084       .  S
C2590      C2591   1.401       .  A
C2590      C2593   1.440       .  S
C2591      C2592   1.400       .  A
C2591      H2599   1.083       .  S
C2592      H2600   1.083       .  S
C2593      C2594   1.206       .  T
C2595      C2596   1.206       .  T
C2601      C2602   1.402       .  A
C2601      C2606   1.401       .  A
C2601      C2609   1.441       .  S
C2602      C2603   1.400       .  A
C2602      H2611   1.083       .  S
C2603      C2604   1.402       .  A
C2603      H2612   1.083       .  S
C2604      C2605   1.401       .  A
C2604      C2607   1.441   1_655  S
C2605      C2606   1.399       .  A
C2605      H2613   1.083       .  S
C2606      H2614   1.083       .  S
C2607      C2608   1.207       .  T
C2609      C2610   1.207       .  T
C2615      C2616   1.401       .  A
C2615      C2620   1.401       .  A
C2615      C2623   1.439       .  S
C2616      C2617   1.399       .  A
C2616      H2625   1.083       .  S
C2617      C2618   1.401       .  A
C2617      H2626   1.083       .  S
C2618      C2619   1.401       .  A
C2618      C2621   1.440       .  S
C2619      C2620   1.399       .  A
C2619      H2627   1.083       .  S
C2620      H2628   1.083       .  S
C2621      C2622   1.206       .  T
C2623      C2624   1.206       .  T
C2629      C2630   1.401       .  A
C2629      C2634   1.401       .  A
C2629      C2637   1.440       .  S
C2630      C2631   1.399       .  A
C2630      H2639   1.084       .  S
C2631      C2632   1.401       .  A
C2631      H2640   1.083       .  S
C2632      C2633   1.401       .  A
C2632      C2635   1.440       .  S
C2633      C2634   1.399       .  A
C2633      H2641   1.084       .  S
C2634      H2642   1.083       .  S
C2635      C2636   1.206       .  T
C2637      C2638   1.206       .  T
C2643      C2644   1.402       .  A
C2643      C2648   1.401       .  A
C2643      C2651   1.440       .  S
C2644      C2645   1.399       .  A
C2644      H2653   1.083       .  S
C2645      C2646   1.401       .  A
C2645      H2654   1.083       .  S
C2646      C2647   1.402       .  A
C2646      C2649   1.439       .  S
C2647      C2648   1.399       .  A
C2647      H2655   1.083       .  S
C2648      H2656   1.083       .  S
C2649      C2650   1.206       .  T
C2651      C2652   1.206       .  T
C2657      C2658   1.401       .  A
C2657      C2662   1.401       .  A
C2657      C2665   1.437       .  S
C2658      C2659   1.398       .  A
C2658      H2667   1.084       .  S
C2659      C2660   1.401       .  A
C2659      H2668   1.083       .  S
C2660      C2661   1.401       .  A
C2660      C2663   1.438       .  S
C2661      C2662   1.398       .  A
C2661      H2669   1.083       .  S
C2662      H2670   1.083       .  S
C2663      C2664   1.205       .  T
C2665      C2666   1.204       .  T
C2671      C2672   1.402       .  A
C2671      C2676   1.401       .  A
C2671      C2679   1.441       .  S
C2672      C2673   1.400       .  A
C2672      H2681   1.083       .  S
C2673      C2674   1.402       .  A
C2673      H2682   1.083       .  S
C2674      C2675   1.401       .  A
C2674      C2677   1.441       .  S
C2675      C2676   1.399       .  A
C2675      H2683   1.084       .  S
C2676      H2684   1.083       .  S
C2677      C2678   1.207       .  T
C2679      C2680   1.206       .  T
C2685      C2686   1.401       .  A
C2685      C2690   1.401       .  A
C2685      C2693   1.439       .  S
C2686      C2687   1.400       .  A
C2686      H2695   1.083       .  S
C2687      C2688   1.402       .  A
C2687      H2696   1.083       .  S
C2688      C2689   1.400       .  A
C2688      C2691   1.439       .  S
C2689      C2690   1.397       .  A
C2689      H2697   1.084       .  S
C2690      H2698   1.084       .  S
C2691      C2692   1.205       .  T
C2693      C2694   1.205       .  T
C2699      C2700   1.402       .  A
C2699      C2704   1.401       .  A
C2699      C2707   1.439       .  S
C2700      C2701   1.399       .  A
C2700      H2709   1.083       .  S
C2701      C2702   1.401   1_554  A
C2701      H2710   1.084   1_554  S
C2702      C2703   1.401   1_556  A
C2702      C2705   1.438       .  S
C2703      C2704   1.398       .  A
C2703      H2711   1.083       .  S
C2704      H2712   1.084       .  S
C2705      C2706   1.205       .  T
C2707      C2708   1.205       .  T
C2713      C2714   1.401       .  A
C2713      C2718   1.401       .  A
C2713      C2721   1.440   1_556  S
C2714      C2715   1.399       .  A
C2714      H2723   1.083       .  S
C2715      C2716   1.401       .  A
C2715      H2724   1.084       .  S
C2716      C2717   1.402       .  A
C2716      C2719   1.440       .  S
C2717      C2718   1.399       .  A
C2717      H2725   1.083       .  S
C2718      H2726   1.083       .  S
C2719      C2720   1.206       .  T
C2721      C2722   1.206       .  T
C2727      C2728   1.402       .  A
C2727      C2732   1.401       .  A
C2727      C2735   1.440       .  S
C2728      C2729   1.399       .  A
C2728      H2737   1.083       .  S
C2729      C2730   1.401       .  A
C2729      H2738   1.083       .  S
C2730      C2731   1.402       .  A
C2730      C2733   1.440       .  S
C2731      C2732   1.399       .  A
C2731      H2739   1.083       .  S
C2732      H2740   1.083       .  S
C2733      C2734   1.206       .  T
C2735      C2736   1.206       .  T
C2741      C2742   1.401       .  A
C2741      C2746   1.401       .  A
C2741      C2749   1.438       .  S
C2742      C2743   1.399       .  A
C2742      H2751   1.083       .  S
C2743      C2744   1.401       .  A
C2743      H2752   1.083       .  S
C2744      C2745   1.401       .  A
C2744      C2747   1.438       .  S
C2745      C2746   1.398       .  A
C2745      H2753   1.084       .  S
C2746      H2754   1.083       .  S
C2747      C2748   1.205       .  T
C2749      C2750   1.205       .  T
C2755      C2756   1.401       .  A
C2755      C2760   1.401       .  A
C2755      C2763   1.436       .  S
C2756      C2757   1.398       .  A
C2756      H2765   1.084       .  S
C2757      C2758   1.401       .  A
C2757      H2766   1.083       .  S
C2758      C2759   1.401       .  A
C2758      C2761   1.436       .  S
C2759      C2760   1.398       .  A
C2759      H2767   1.084       .  S
C2760      H2768   1.083       .  S
C2761      C2762   1.204       .  T
C2763      C2764   1.204       .  T
C2769      C2770   1.401       .  A
C2769      C2774   1.400       .  A
C2769      C2777   1.437       .  S
C2770      C2771   1.398       .  A
C2770      H2779   1.083       .  S
C2771      C2772   1.401       .  A
C2771      H2780   1.084       .  S
C2772      C2773   1.401       .  A
C2772      C2775   1.437       .  S
C2773      C2774   1.397       .  A
C2773      H2781   1.083       .  S
C2774      H2782   1.084       .  S
C2775      C2776   1.204       .  T
C2777      C2778   1.204       .  T
C2783      C2784   1.401       .  A
C2783      C2788   1.401       .  A
C2783      C2791   1.438       .  S
C2784      C2785   1.398       .  A
C2784      H2793   1.084       .  S
C2785      C2786   1.401       .  A
C2785      H2794   1.083       .  S
C2786      C2787   1.401       .  A
C2786      C2789   1.438       .  S
C2787      C2788   1.398       .  A
C2787      H2795   1.084       .  S
C2788      H2796   1.083       .  S
C2789      C2790   1.205       .  T
C2791      C2792   1.205       .  T
C2797      C2798   1.401       .  A
C2797      C2802   1.401       .  A
C2797      C2805   1.440       .  S
C2798      C2799   1.399       .  A
C2798      H2807   1.083       .  S
C2799      C2800   1.401       .  A
C2799      H2808   1.084       .  S
C2800      C2801   1.401       .  A
C2800      C2803   1.440       .  S
C2801      C2802   1.399       .  A
C2801      H2809   1.083       .  S
C2802      H2810   1.084       .  S
C2803      C2804   1.206       .  T
C2805      C2806   1.206       .  T
C2811      C2812   1.401       .  A
C2811      C2816   1.401       .  A
C2811      C2819   1.438       .  S
C2812      C2813   1.399       .  A
C2812      H2821   1.083       .  S
C2813      C2814   1.402       .  A
C2813      H2822   1.083       .  S
C2814      C2815   1.400       .  A
C2814      C2817   1.438       .  S
C2815      C2816   1.397       .  A
C2815      H2823   1.083       .  S
C2816      H2824   1.083       .  S
C2817      C2818   1.205       .  T
C2819      C2820   1.205       .  T
C2825      C2826   1.401       .  A
C2825      C2830   1.401       .  A
C2825      C2833   1.438       .  S
C2826      C2827   1.398   1_455  A
C2826      H2835   1.083       .  S
C2827      C2828   1.401       .  A
C2827      H2836   1.084       .  S
C2828      C2829   1.401       .  A
C2828      C2831   1.438       .  S
C2829      C2830   1.399   1_655  A
C2829      H2837   1.083       .  S
C2830      H2838   1.083       .  S
C2831      C2832   1.205       .  T
C2833      C2834   1.205       .  T
C2839      C2840   1.402       .  A
C2839      C2844   1.401       .  A
C2839      C2847   1.440       .  S
C2840      C2841   1.399       .  A
C2840      H2849   1.084       .  S
C2841      C2842   1.401       .  A
C2841      H2850   1.083       .  S
C2842      C2843   1.401       .  A
C2842      C2845   1.440       .  S
C2843      C2844   1.399       .  A
C2843      H2851   1.083       .  S
C2844      H2852   1.083       .  S
C2845      C2846   1.206       .  T
C2847      C2848   1.206   1_655  T
C2853      C2854   1.401       .  A
C2853      C2858   1.401       .  A
C2853      C2861   1.440       .  S
C2854      C2855   1.400       .  A
C2854      H2863   1.083       .  S
C2855      C2856   1.402       .  A
C2855      H2864   1.084       .  S
C2856      C2857   1.401       .  A
C2856      C2859   1.440       .  S
C2857      C2858   1.399       .  A
C2857      H2865   1.083       .  S
C2858      H2866   1.084       .  S
C2859      C2860   1.206       .  T
C2861      C2862   1.206       .  T
C2867      C2868   1.401       .  A
C2867      C2872   1.401       .  A
C2867      C2875   1.440       .  S
C2868      C2869   1.399       .  A
C2868      H2877   1.083       .  S
C2869      C2870   1.402       .  A
C2869      H2878   1.083       .  S
C2870      C2871   1.401       .  A
C2870      C2873   1.440       .  S
C2871      C2872   1.399       .  A
C2871      H2879   1.083       .  S
C2872      H2880   1.084       .  S
C2873      C2874   1.206       .  T
C2875      C2876   1.206       .  T
