geometry optimzed in LAMMPS
_audit_creation_date              2020-11-30 
_audit_creation_method            'lammps2cif' 
_symmetry_space_group_name_H-M    'P1' 
_symmetry_Int_Tables_number       1 
_symmetry_cell_setting            triclinic 
loop_ 
_symmetry_equiv_pos_as_xyz 
  x,y,z 
_cell_length_a                    33.05043129 
_cell_length_b                    33.025867147401485 
_cell_length_c                    33.82278061893548 
_cell_angle_alpha                 90.02301053718331 
_cell_angle_beta                  89.60506905264982 
_cell_angle_gamma                 89.99878697480192 
loop_ 
_atom_site_label 
_atom_site_type_symbol 
_atom_site_fract_x 
_atom_site_fract_y 
_atom_site_fract_z 
_atom_site_charge 
C1          C  0.37185657  0.37746816  0.99680622     0.79100
N2          N  0.35670155  0.36395484  0.29447584    -0.79200
C3          C  0.32807001  0.33446855  0.29484932     0.81600
N4          N  0.31419369  0.31960840  0.32978648    -0.79100
C5          C  0.32793157  0.33365371  0.03123036     0.81600
N6          N  0.35681543  0.36286329  0.03146427    -0.80900
C7          C  0.08212753  0.37970862  0.99703598     0.79100
N8          N  0.09659154  0.36434445  0.29650079    -0.79200
C9          C  0.12606698  0.33575575  0.29627231     0.81600
N10         N  0.14108968  0.32173630  0.33086047    -0.79100
C11         C  0.12567478  0.33624202  0.03188094     0.81600
N12         N  0.09674486  0.36546737  0.03185526    -0.80900
C13         C  0.37004051  0.08806124  0.99635604     0.79100
N14         N  0.35483543  0.10243083  0.29495368    -0.79200
C15         C  0.32521382  0.13093603  0.29511015     0.81600
N16         N  0.31080366  0.14555091  0.32993442    -0.79100
C17         C  0.32640995  0.13141144  0.03176634     0.81600
N18         N  0.35591862  0.10281676  0.03134431    -0.80900
N19         N  0.47666255  0.42106315  0.99599856    -0.37700
N20         N  0.03876622  0.48473190  0.99732532    -0.58300
N21         N  0.47578206  0.04598678  0.99496938    -0.37700
N22         N  0.41365828  0.48300607  0.99698590    -0.58300
C23         C  0.00977604  0.39914955  0.00178712     0.25900
C24         C  0.44364498  0.39822602  0.00411755     0.25900
C25         C  0.00854242  0.06985566  0.00143872     0.25900
C26         C  0.44242396  0.06869805  0.00214640     0.25900
C27         C  0.06289916  0.45210642  0.99203219     0.34500
C28         C  0.06246447  0.01754070  0.99189497     0.34500
C29         C  0.39042616  0.44995405  0.99080531     0.34500
C30         C  0.38969431  0.01585523  0.99048334     0.34500
C31         C  0.49752645  0.36093504  0.01838087    -0.23000
C32         C  0.45586191  0.36063538  0.01793462    -0.23000
C33         C  0.49579642  0.10734630  0.01477995    -0.23000
C34         C  0.45415680  0.10703742  0.01432602    -0.23000
C35         C  0.10222493  0.46445993  0.98412709    -0.24100
C36         C  0.10192557  0.00567747  0.98381403    -0.24100
C37         C  0.35147400  0.46163135  0.98097396    -0.24100
C38         C  0.35064048  0.00348852  0.98182487    -0.24100
C39         C  0.05054667  0.41140427  0.99681222    -0.19400
C40         C  0.40302697  0.40955110  0.99698932    -0.19400
C41         C  0.40183721  0.05653546  0.99590179    -0.19400
C42         C  0.04952502  0.05807698  0.99667517    -0.19400
H43         H  0.01675999  0.33523290  0.02071243     0.13500
H44         H  0.43681749  0.33539062  0.02640881     0.13500
H45         H  0.01454384  0.13428470  0.01903869     0.13500
H46         H  0.43479989  0.13239594  0.02172733     0.13500
H47         H  0.12852981  0.44552408  0.97930133     0.11800
H48         H  0.12796197  0.02493985  0.97884171     0.11800
H49         H  0.32578470  0.44226195  0.97512815     0.11800
H50         H  0.32447965  0.02240412  0.97658230     0.11800
H51         H  0.47672915  0.44932912  0.98272181     0.25000
H52         H  0.47622514  0.01709126  0.98310426     0.25000
C53         C  0.08073740  0.09010626  0.99701404     0.79100
N54         N  0.09502337  0.10458339  0.03187493    -0.79200
C55         C  0.12375051  0.13399832  0.03197097     0.81600
N56         N  0.13787187  0.14873114  0.33114739    -0.79100
C57         C  0.12345014  0.13403405  0.29654735     0.81600
N58         N  0.09485960  0.10449283  0.29690476    -0.80900
N59         N  0.27409247  0.30937509  0.20905326    -0.07200
N60         N  0.27928392  0.33407270  0.23933403    -0.59400
N61         N  0.30191896  0.28053503  0.11774438    -0.06900
N62         N  0.32625729  0.28470028  0.08687453    -0.61500
N63         N  0.27415752  0.30912886  0.11787382    -0.06600
N64         N  0.27905006  0.33339046  0.08718926    -0.59300
N65         N  0.30171471  0.28065836  0.20913948    -0.06200
N66         N  0.32622237  0.28514579  0.23950933    -0.61800
C67         C  0.31198333  0.31866459  0.25779940     0.94900
C68         C  0.31170422  0.31784476  0.06836771     0.94700
N69         N  0.27260390  0.15759686  0.11803555    -0.07400
N70         N  0.27727291  0.13299068  0.08755250    -0.59900
N71         N  0.30057694  0.18527790  0.20925106    -0.05500
N72         N  0.32504876  0.17991666  0.23951153    -0.61200
N73         N  0.27195489  0.15755860  0.20933637    -0.07400
N74         N  0.27626891  0.13282353  0.23970982    -0.60200
N75         N  0.30126989  0.18526326  0.11813719    -0.05200
N76         N  0.32610991  0.18001827  0.08779869    -0.61300
Mn77       Mn  0.30279913  0.23296115  0.16358534     1.18400
C78         C  0.31085143  0.14720843  0.06924944     0.97000
C79         C  0.30963179  0.14701009  0.25796650     0.97700
N80         N  0.17898777  0.31050077  0.11807092    -0.07500
N81         N  0.17454613  0.33499676  0.08750252    -0.63800
N82         N  0.15057559  0.28244410  0.20960345    -0.06300
N83         N  0.12632428  0.28716547  0.24043707    -0.64500
N84         N  0.17900302  0.31035529  0.20944137    -0.07000
N85         N  0.17471330  0.33468649  0.24017124    -0.64000
N86         N  0.15051048  0.28262389  0.11827543    -0.05900
N87         N  0.12610357  0.28758205  0.08788175    -0.64700
Mn88       Mn  0.22657861  0.31130393  0.16360100     1.10700
C89         C  0.14132839  0.32044518  0.06920442     0.98200
C90         C  0.14165807  0.31993491  0.25893761     0.98300
N91         N  0.17696787  0.15876613  0.20960780    -0.07000
N92         N  0.17202548  0.13436318  0.24020256    -0.62400
N93         N  0.14936366  0.18727716  0.11834286    -0.06300
N94         N  0.12491113  0.18281141  0.08790675    -0.59100
N95         N  0.17723259  0.15879978  0.11821112    -0.07600
N96         N  0.17231564  0.13434113  0.08770332    -0.61900
N97         N  0.14920938  0.18734398  0.20985946    -0.06600
N98         N  0.12480638  0.18300387  0.24069466    -0.59100
Mn99       Mn  0.22464743  0.15680597  0.16374840     1.20200
Mn100      Mn  0.14848453  0.23495225  0.16401619     1.10100
Cl101      Cl  0.22563887  0.23401315  0.16368878    -0.87100
C102        C  0.13927901  0.14971405  0.25906543     0.95300
C103        C  0.13948144  0.14957379  0.06932577     0.95100
C104        C  0.37146487  0.37856641  0.32907537     0.79100
N105        N  0.35699069  0.36359356  0.62824242    -0.79200
C106        C  0.32880530  0.33370406  0.62864221     0.81600
N107        N  0.31510965  0.31873202  0.66360405    -0.79100
C108        C  0.32876916  0.33417955  0.36438396     0.81600
N109        N  0.35735161  0.36371683  0.36403299    -0.80900
C110        C  0.08213787  0.37896691  0.33137593     0.79100
N111        N  0.09616741  0.36506946  0.62982596    -0.79200
C112        C  0.12582942  0.33661869  0.62920197     0.81600
N113        N  0.14122365  0.32253490  0.66362813    -0.79100
C114        C  0.12677527  0.33631521  0.36572825     0.81600
N115        N  0.09728314  0.36494195  0.36602782    -0.80900
C116        C  0.37003863  0.08858139  0.32967201     0.79100
N117        N  0.35510318  0.10330035  0.62798937    -0.79200
C118        C  0.32588059  0.13219637  0.62851991     0.81600
N119        N  0.31187452  0.14679841  0.66350061    -0.79100
C120        C  0.32593078  0.13180373  0.36459579     0.81600
N121        N  0.35556896  0.10336983  0.36448908    -0.80900
N122        N  0.47652211  0.42192990  0.32742112    -0.37700
N123        N  0.03883413  0.48398483  0.33318977    -0.58300
N124        N  0.47572827  0.04651985  0.32967474    -0.37700
N125        N  0.41365946  0.48394140  0.33005917    -0.58300
C126        C  0.00962604  0.39808638  0.33521786     0.25900
C127        C  0.44347949  0.39897505  0.33518017     0.25900
C128        C  0.00851937  0.06923206  0.33759018     0.25900
C129        C  0.44237051  0.06937372  0.33622693     0.25900
C130        C  0.06317398  0.45139866  0.32876896     0.34500
C131        C  0.06236455  0.01708954  0.32752417     0.34500
C132        C  0.39034704  0.45107327  0.32320822     0.34500
C133        C  0.38986241  0.01644277  0.32357804     0.34500
C134        C  0.49728493  0.36137843  0.34882626    -0.23000
C135        C  0.45565343  0.36111984  0.34830451    -0.23000
C136        C  0.49577524  0.10822536  0.34832056    -0.23000
C137        C  0.45410147  0.10795300  0.34775007    -0.23000
C138        C  0.10294265  0.46382993  0.32359306    -0.24100
C139        C  0.10180075  0.00524931  0.31939064    -0.24100
C140        C  0.35146188  0.46301893  0.31350206    -0.24100
C141        C  0.35106460  0.00418777  0.31377382    -0.24100
C142        C  0.05050366  0.41057332  0.33146307    -0.19400
C143        C  0.40281802  0.41053500  0.32869130    -0.19400
C144        C  0.40186764  0.05711357  0.32960743    -0.19400
C145        C  0.04945168  0.05764362  0.33220846    -0.19400
H146        H  0.01652719  0.33379450  0.35291120     0.13500
H147        H  0.43659971  0.33576499  0.35642304     0.13500
H148        H  0.01449686  0.13307176  0.35714600     0.13500
H149        H  0.43474210  0.13352782  0.35441116     0.13500
H150        H  0.12947251  0.44495303  0.31986463     0.11800
H151        H  0.12782156  0.02452140  0.31438560     0.11800
H152        H  0.32576692  0.44381900  0.30719217     0.11800
H153        H  0.32506023  0.02316591  0.30806036     0.11800
H154        H  0.47663988  0.45051026  0.31478125     0.25000
H155        H  0.47617156  0.01743351  0.31834357     0.25000
C156        C  0.08057242  0.08981250  0.33187031     0.79100
N157        N  0.09515612  0.10457291  0.36646161    -0.79200
C158        C  0.12377969  0.13404633  0.36606944     0.81600
N159        N  0.13840988  0.14829712  0.66337468    -0.79100
C160        C  0.12369361  0.13359908  0.62892649     0.81600
N161        N  0.09485805  0.10433691  0.62942618    -0.80900
N162        N  0.27492561  0.30917459  0.54265136    -0.07200
N163        N  0.27991775  0.33348157  0.57325461    -0.59400
N164        N  0.30286526  0.28069153  0.45087701    -0.06900
N165        N  0.32723547  0.28498097  0.42001590    -0.61500
N166        N  0.27529821  0.30945575  0.45132358    -0.06600
N167        N  0.28041678  0.33401377  0.42087944    -0.59300
N168        N  0.30271003  0.28062206  0.54239213    -0.06200
N169        N  0.32715425  0.28483043  0.57285748    -0.61800
C170        C  0.31265979  0.31799865  0.59157899     0.94900
C171        C  0.31299589  0.31849193  0.40186660     0.94700
N172        N  0.27284932  0.15786161  0.45120562    -0.07400
N173        N  0.27706114  0.13345289  0.42052352    -0.59900
N174        N  0.30120245  0.18569029  0.54230078    -0.05500
N175        N  0.32550203  0.18082275  0.57274810    -0.61200
N176        N  0.27256286  0.15799902  0.54260765    -0.07400
N177        N  0.27672117  0.13371492  0.57333991    -0.60200
N178        N  0.30149587  0.18553804  0.45110933    -0.05200
N179        N  0.32589841  0.18050255  0.42042259    -0.61300
Mn180      Mn  0.30351272  0.23310691  0.49662813     1.18400
C181        C  0.31034747  0.14784293  0.40188271     0.97000
C182        C  0.30995883  0.14823630  0.59157329     0.97700
N183        N  0.18010859  0.31043326  0.45161243    -0.07500
N184        N  0.17576951  0.33492221  0.42105945    -0.63800
N185        N  0.15092008  0.28285651  0.54282775    -0.06300
N186        N  0.12606297  0.28815673  0.57313120    -0.64500
N187        N  0.17962747  0.31048502  0.54293744    -0.07000
N188        N  0.17498878  0.33508874  0.57342964    -0.64000
N189        N  0.15158267  0.28261034  0.45177024    -0.05900
N190        N  0.12723571  0.28756111  0.42137447    -0.64700
Mn191      Mn  0.22751584  0.31134298  0.49716759     1.10700
C192        C  0.14256569  0.32038004  0.40277526     0.98200
C193        C  0.14133780  0.32095322  0.59166920     0.98300
N194        N  0.17756656  0.15892182  0.54269424    -0.07000
N195        N  0.17232846  0.13412020  0.57289461    -0.62400
N196        N  0.15002396  0.18755843  0.45186824    -0.06300
N197        N  0.12537706  0.18304267  0.42162437    -0.59100
N198        N  0.17785853  0.15906475  0.45166362    -0.07600
N199        N  0.17277166  0.13453125  0.42126714    -0.61900
N200        N  0.14978332  0.18747348  0.54298976    -0.06600
N201        N  0.12503240  0.18272402  0.57346325    -0.59100
Mn202      Mn  0.22523552  0.15704261  0.49704133     1.20200
Mn203      Mn  0.14916758  0.23517084  0.49740320     1.10100
Cl204      Cl  0.22634835  0.23417837  0.49707553    -0.87100
C205        C  0.13934059  0.14919705  0.59150735     0.95300
C206        C  0.13985222  0.14977772  0.40308006     0.95100
C207        C  0.37157018  0.37839236  0.66281982     0.79100
N208        N  0.35769056  0.36298407  0.96192180    -0.79200
C209        C  0.32872096  0.33385008  0.96174551     0.81600
N210        N  0.31391229  0.31920269  0.99638461    -0.79100
C211        C  0.32952032  0.33355776  0.69817508     0.81600
N212        N  0.35772612  0.36341884  0.69779220    -0.80900
C213        C  0.08196084  0.37946011  0.66494192     0.79100
N214        N  0.09651404  0.36466870  0.96229380    -0.79200
C215        C  0.12541528  0.33548782  0.96232776     0.81600
N216        N  0.13993195  0.32129961  0.99709880    -0.79100
C217        C  0.12709196  0.33681584  0.69869325     0.81600
N218        N  0.09743994  0.36523825  0.69936055    -0.80900
C219        C  0.37029640  0.08902016  0.66251623     0.79100
N220        N  0.35459678  0.10206483  0.96179816    -0.79200
C221        C  0.32510691  0.13070840  0.96222770     0.81600
N222        N  0.31107582  0.14531718  0.99722365    -0.79100
C223        C  0.32704086  0.13263076  0.69797538     0.81600
N224        N  0.35623348  0.10374999  0.69750798    -0.80900
N225        N  0.47668233  0.42208188  0.66161804    -0.37700
N226        N  0.03830703  0.48417306  0.66546982    -0.58300
N227        N  0.47536530  0.04666690  0.66571057    -0.37700
N228        N  0.41331559  0.48419938  0.66179664    -0.58300
C229        C  0.00958351  0.39873436  0.65935372     0.25900
C230        C  0.44366865  0.39827835  0.66612773     0.25900
C231        C  0.00857074  0.06949660  0.65848510     0.25900
C232        C  0.44243935  0.06914939  0.65679499     0.25900
C233        C  0.06205411  0.45151546  0.67177059     0.34500
C234        C  0.06194823  0.01744093  0.67066682     0.34500
C235        C  0.38936560  0.45113213  0.65948845     0.34500
C236        C  0.38922445  0.01654027  0.66712541     0.34500
C237        C  0.49765788  0.35926104  0.67465398    -0.23000
C238        C  0.45605667  0.35896287  0.67403072    -0.23000
C239        C  0.49631865  0.10728532  0.64438827    -0.23000
C240        C  0.45469687  0.10703609  0.64372202    -0.23000
C241        C  0.10081830  0.46384565  0.68157921    -0.24100
C242        C  0.10116113  0.00571131  0.67943409    -0.24100
C243        C  0.34924547  0.46289079  0.65605845    -0.24100
C244        C  0.34992834  0.00437069  0.67538853    -0.24100
C245        C  0.05009994  0.41087888  0.66575836    -0.19400
C246        C  0.40269448  0.41047341  0.66238195    -0.19400
C247        C  0.40169080  0.05717858  0.66220414    -0.19400
C248        C  0.04926613  0.05791654  0.66500125    -0.19400
H249        H  0.01735060  0.33562111  0.63805573     0.13500
H250        H  0.43713988  0.33264402  0.67880251     0.13500
H251        H  0.01547232  0.13309396  0.63839272     0.13500
H252        H  0.43566708  0.13203473  0.63479079     0.13500
H253        H  0.12680105  0.44491096  0.68751406     0.11800
H254        H  0.12704165  0.02504040  0.68457490     0.11800
H255        H  0.32285641  0.44356840  0.65437222     0.11800
H256        H  0.32374762  0.02341988  0.68043293     0.11800
H257        H  0.47665551  0.45223075  0.65365886     0.25000
H258        H  0.47520734  0.01825490  0.67863880     0.25000
C259        C  0.08059132  0.08990309  0.66446814     0.79100
N260        N  0.09542654  0.10470185  0.69897942    -0.79200
C261        C  0.12434588  0.13391921  0.69838610     0.81600
N262        N  0.13822404  0.14882467  0.99722120    -0.79100
C263        C  0.12403801  0.13436225  0.96240120     0.81600
N264        N  0.09535700  0.10498086  0.96231951    -0.80900
N265        N  0.27483776  0.30907814  0.87595272    -0.07200
N266        N  0.28007037  0.33373520  0.90623744    -0.59400
N267        N  0.30329067  0.28062812  0.78478880    -0.06900
N268        N  0.32796292  0.28491354  0.75417252    -0.61500
N269        N  0.27552427  0.30921651  0.78479693    -0.06600
N270        N  0.28074513  0.33357777  0.75422734    -0.59300
N271        N  0.30256428  0.28046838  0.87589786    -0.06200
N272        N  0.32724564  0.28501823  0.90610081    -0.61800
C273        C  0.31296617  0.31845586  0.92446708     0.94900
C274        C  0.31363413  0.31815713  0.73566208     0.94700
N275        N  0.27353509  0.15777129  0.78454834    -0.07400
N276        N  0.27811089  0.13351443  0.75380693    -0.59900
N277        N  0.30095226  0.18513999  0.87613368    -0.05500
N278        N  0.32499632  0.17995702  0.90676083    -0.61200
N279        N  0.27243698  0.15730975  0.87591790    -0.07400
N280        N  0.27645526  0.13263645  0.90640676    -0.60200
N281        N  0.30204858  0.18557608  0.78475979    -0.05200
N282        N  0.32664959  0.18086651  0.75417680    -0.61300
Mn283      Mn  0.30362287  0.23290784  0.83042922     1.18400
C284        C  0.31144011  0.14817187  0.73543952     0.97000
C285        C  0.30946528  0.14704887  0.92513500     0.97700
N286        N  0.18028963  0.31055046  0.78461614    -0.07500
N287        N  0.17605026  0.33515324  0.75412097    -0.63800
N288        N  0.15098503  0.28220717  0.87578135    -0.06300
N289        N  0.12630741  0.28692376  0.90631375    -0.64500
N290        N  0.17944259  0.31009353  0.87597089    -0.07000
N291        N  0.17470879  0.33441255  0.90666432    -0.64000
N292        N  0.15180570  0.28269361  0.78457314    -0.05900
N293        N  0.12757824  0.28773541  0.75409368    -0.64700
Mn294      Mn  0.22751971  0.31120996  0.83035985     1.10700
C295        C  0.14298228  0.32059302  0.73560879     0.98200
C296        C  0.14140201  0.31967427  0.92505381     0.98300
N297        N  0.17755734  0.15863730  0.87544293    -0.07000
N298        N  0.17274040  0.13449216  0.90623466    -0.62400
N299        N  0.15065415  0.18764612  0.78412372    -0.06300
N300        N  0.12616144  0.18321284  0.75373682    -0.59100
N301        N  0.17844487  0.15910146  0.78404094    -0.07600
N302        N  0.17344536  0.13460216  0.75358504    -0.61900
N303        N  0.14977575  0.18718565  0.87554447    -0.06600
N304        N  0.12544323  0.18307553  0.90644019    -0.59100
Mn305      Mn  0.22546697  0.15676230  0.82994054     1.20200
Mn306      Mn  0.14938058  0.23494579  0.82999321     1.10100
Cl307      Cl  0.22650531  0.23398552  0.83018330    -0.87100
C308        C  0.14008567  0.15003869  0.92507503     0.95300
C309        C  0.14062952  0.14990863  0.73524559     0.95100
C310        C  0.37159504  0.87764619  0.99710530     0.79100
N311        N  0.35623064  0.86376475  0.29516987    -0.79200
C312        C  0.32733816  0.83454484  0.29574806     0.81600
N313        N  0.31352917  0.81987368  0.33077669    -0.79100
C314        C  0.32817595  0.83354103  0.03192925     0.81600
N315        N  0.35682771  0.86303741  0.03191543    -0.80900
C316        C  0.08187131  0.87955619  0.99795768     0.79100
N317        N  0.09624534  0.86461303  0.29739549    -0.79200
C318        C  0.12551249  0.83581296  0.29700371     0.81600
N319        N  0.14038168  0.82147476  0.33157419    -0.79100
C320        C  0.12573916  0.83629331  0.03253268     0.81600
N321        N  0.09666004  0.86533340  0.03268418    -0.80900
C322        C  0.36994840  0.58783310  0.99692950     0.79100
N323        N  0.35490309  0.60290635  0.29614443    -0.79200
C324        C  0.32525990  0.63142438  0.29653353     0.81600
N325        N  0.31102231  0.64583384  0.33150347    -0.79100
C326        C  0.32634274  0.63103459  0.03264493     0.81600
N327        N  0.35570220  0.60226181  0.03202076    -0.80900
N328        N  0.47663764  0.92134701  0.99555960    -0.37700
N329        N  0.03884130  0.98460971  0.99739665    -0.58300
N330        N  0.47581743  0.54575245  0.99575846    -0.37700
N331        N  0.41357686  0.98321684  0.99633973    -0.58300
C332        C  0.00974709  0.89937007  0.00389285     0.25900
C333        C  0.44359177  0.89839004  0.00343103     0.25900
C334        C  0.00848667  0.56963254  0.00294756     0.25900
C335        C  0.44244538  0.56859161  0.00250124     0.25900
C336        C  0.06285456  0.95188871  0.99228882     0.34500
C337        C  0.06238358  0.51774519  0.99222504     0.34500
C338        C  0.39011877  0.95018496  0.99091833     0.34500
C339        C  0.38988073  0.51563566  0.99062635     0.34500
C340        C  0.49752201  0.86096835  0.01723942    -0.23000
C341        C  0.45586871  0.86064815  0.01675669    -0.23000
C342        C  0.49584580  0.60744370  0.01449733    -0.23000
C343        C  0.45419239  0.60714150  0.01401101    -0.23000
C344        C  0.10215830  0.96407999  0.98400425    -0.24100
C345        C  0.10190325  0.50604071  0.98424822    -0.24100
C346        C  0.35091250  0.96189750  0.98208279    -0.24100
C347        C  0.35112034  0.50322709  0.98090123    -0.24100
C348        C  0.05044772  0.91132694  0.99791244    -0.19400
C349        C  0.40282323  0.90977223  0.99689318    -0.19400
C350        C  0.40185525  0.55634512  0.99630720    -0.19400
C351        C  0.04942061  0.55818314  0.99750067    -0.19400
H352        H  0.01670165  0.83618144  0.02503756     0.13500
H353        H  0.43685329  0.83531317  0.02501840     0.13500
H354        H  0.01447793  0.63258679  0.02502379     0.13500
H355        H  0.43483588  0.63267185  0.02082151     0.13500
H356        H  0.12841375  0.94504550  0.97928148     0.11800
H357        H  0.12793268  0.52539164  0.97959200     0.11800
H358        H  0.32500570  0.94255972  0.97708579     0.11800
H359        H  0.32512136  0.52212137  0.97491570     0.11800
H360        H  0.47668772  0.94983802  0.98278030     0.25000
H361        H  0.47625902  0.51666659  0.98441673     0.25000
C362        C  0.08055550  0.59028759  0.99782326     0.79100
N363        N  0.09501528  0.60470921  0.03263802    -0.79200
C364        C  0.12416746  0.63371068  0.03261488     0.81600
N365        N  0.13695485  0.64957247  0.33132609    -0.79100
C366        C  0.12233042  0.63457650  0.29690572     0.81600
N367        N  0.09414951  0.60467280  0.29764768    -0.80900
N368        N  0.27354867  0.80940769  0.20984127    -0.07200
N369        N  0.27849037  0.83398577  0.24025840    -0.59400
N370        N  0.30176796  0.78040892  0.11845074    -0.06900
N371        N  0.32626287  0.78458842  0.08768326    -0.61500
N372        N  0.27406584  0.80906644  0.11853038    -0.06600
N373        N  0.27918041  0.83337875  0.08789856    -0.59300
N374        N  0.30127716  0.78079528  0.20991692    -0.06200
N375        N  0.32563882  0.78526066  0.24039707    -0.61800
C376        C  0.31116369  0.81861400  0.25879265     0.94900
C377        C  0.31193295  0.81785167  0.06919084     0.94700
N378        N  0.27275742  0.65720256  0.11918606    -0.07400
N379        N  0.27749793  0.63244780  0.08880541    -0.59900
N380        N  0.30023496  0.68554168  0.21047943    -0.05500
N381        N  0.32462077  0.68047362  0.24087272    -0.61200
N382        N  0.27170640  0.65771618  0.21062769    -0.07400
N383        N  0.27609022  0.63313440  0.24113876    -0.60200
N384        N  0.30123728  0.68505311  0.11907349    -0.05200
N385        N  0.32597256  0.67982701  0.08862975    -0.61300
Mn386      Mn  0.30253907  0.73297007  0.16446553     1.18400
C387        C  0.31091484  0.64677990  0.07028492     0.97000
C388        C  0.30932799  0.64758838  0.25947385     0.97700
N389        N  0.17892728  0.81046098  0.11858395    -0.07500
N390        N  0.17454812  0.83500509  0.08806380    -0.63800
N391        N  0.14988699  0.78272873  0.20997531    -0.06300
N392        N  0.12556682  0.78749715  0.24077915    -0.64500
N393        N  0.17843172  0.81053116  0.20996102    -0.07000
N394        N  0.17417339  0.83477367  0.24078280    -0.64000
N395        N  0.15049394  0.78255313  0.11866865    -0.05900
N396        N  0.12616629  0.78750287  0.08823857    -0.64700
Mn397      Mn  0.22627034  0.81132181  0.16422802     1.10700
C398        C  0.14141740  0.82040192  0.06968816     0.98200
C399        C  0.14101331  0.82012600  0.25947488     0.98300
N400        N  0.17631519  0.65888318  0.21014639    -0.07000
N401        N  0.17100936  0.63449147  0.24068963    -0.62400
N402        N  0.14955066  0.68728555  0.11877787    -0.06300
N403        N  0.12516833  0.68265880  0.08832404    -0.59100
N404        N  0.17752696  0.65889881  0.11875542    -0.07600
N405        N  0.17281159  0.63441476  0.08823712    -0.61900
N406        N  0.14852113  0.68743805  0.21011585    -0.06600
N407        N  0.12376456  0.68309738  0.24068055    -0.59100
Mn408      Mn  0.22453965  0.65678523  0.16468839     1.20200
Mn409      Mn  0.14818985  0.73502764  0.16437993     1.10100
Cl410      Cl  0.22538359  0.73403072  0.16443196    -0.87100
C411        C  0.13804101  0.64982244  0.25920657     0.95300
C412        C  0.13991848  0.64946696  0.06982945     0.95100
C413        C  0.37134863  0.87830772  0.32964500     0.79100
N414        N  0.35685934  0.86357914  0.62893820    -0.79200
C415        C  0.32829735  0.83406175  0.62910635     0.81600
N416        N  0.31407576  0.81924565  0.66392453    -0.79100
C417        C  0.32845817  0.83434957  0.36526194     0.81600
N418        N  0.35733089  0.86361944  0.36471594    -0.80900
C419        C  0.08181155  0.87908371  0.33234299     0.79100
N420        N  0.09678893  0.86516466  0.63085184    -0.79200
C421        C  0.12639718  0.83665324  0.63071201     0.81600
N422        N  0.14119103  0.82259482  0.66540376    -0.79100
C423        C  0.12602607  0.83587866  0.36653790     0.81600
N424        N  0.09671759  0.86467833  0.36693569    -0.80900
C425        C  0.37024789  0.58885866  0.33075788     0.79100
N426        N  0.35451614  0.60368095  0.62851963    -0.79200
C427        C  0.32529501  0.63252730  0.62933156     0.81600
N428        N  0.31137958  0.64688812  0.66441388    -0.79100
C429        C  0.32629165  0.63185966  0.36602223     0.81600
N430        N  0.35588472  0.60341449  0.36568325    -0.80900
N431        N  0.47652071  0.92160140  0.32754180    -0.37700
N432        N  0.03870759  0.98414097  0.33296944    -0.58300
N433        N  0.47583263  0.54670699  0.33041565    -0.37700
N434        N  0.41359148  0.98369135  0.32953714    -0.58300
C435        C  0.00955259  0.89851638  0.33785536     0.25900
C436        C  0.44345994  0.89871309  0.33547037     0.25900
C437        C  0.00841061  0.56982522  0.33695098     0.25900
C438        C  0.44248104  0.56935549  0.33764563     0.25900
C439        C  0.06270773  0.95142653  0.32765308     0.34500
C440        C  0.06273292  0.51707779  0.33016533     0.34500
C441        C  0.39028094  0.95074095  0.32305522     0.34500
C442        C  0.38998202  0.51674123  0.32418919     0.34500
C443        C  0.49730111  0.86119685  0.34930419    -0.23000
C444        C  0.45565378  0.86094521  0.34882125    -0.23000
C445        C  0.49586636  0.60780436  0.35091928    -0.23000
C446        C  0.45419616  0.60754558  0.35034247    -0.23000
C447        C  0.10201362  0.96366578  0.31943820    -0.24100
C448        C  0.10267000  0.50538970  0.32455047    -0.24100
C449        C  0.35134167  0.96259939  0.31341481    -0.24100
C450        C  0.35121705  0.50459974  0.31414791    -0.24100
C451        C  0.05028441  0.91074945  0.33257550    -0.19400
C452        C  0.40276446  0.91024410  0.32895457    -0.19400
C453        C  0.40201459  0.55733122  0.33052988    -0.19400
C454        C  0.04944863  0.55771497  0.33350062    -0.19400
H455        H  0.01647763  0.83463076  0.35694958     0.13500
H456        H  0.43660185  0.83564920  0.35711922     0.13500
H457        H  0.01446794  0.63558121  0.34912319     0.13500
H458        H  0.43483221  0.63288972  0.35778890     0.13500
H459        H  0.12823922  0.94465759  0.31446682     0.11800
H460        H  0.12893802  0.52475632  0.32159357     0.11800
H461        H  0.32560669  0.94334778  0.30740993     0.11800
H462        H  0.32526529  0.52364496  0.30842743     0.11800
H463        H  0.47662591  0.95009376  0.31473631     0.25000
H464        H  0.47627189  0.51800658  0.31810255     0.25000
C465        C  0.08047252  0.58992257  0.33279401     0.79100
N466        N  0.09520002  0.60498190  0.36719784    -0.79200
C467        C  0.12344025  0.63481489  0.36645257     0.81600
N468        N  0.13786366  0.64838826  0.66442215    -0.79100
C469        C  0.12363190  0.63337723  0.62988583     0.81600
N470        N  0.09494194  0.60396439  0.63026421    -0.80900
N471        N  0.27457945  0.80942975  0.54318705    -0.07200
N472        N  0.27954354  0.83381493  0.57371710    -0.59400
N473        N  0.30252779  0.78088989  0.45170899    -0.06900
N474        N  0.32712891  0.78539741  0.42106177    -0.61500
N475        N  0.27472375  0.80943369  0.45194936    -0.06600
N476        N  0.27985649  0.83400438  0.42152427    -0.59300
N477        N  0.30242601  0.78095640  0.54296528    -0.06200
N478        N  0.32694965  0.78532064  0.57332839    -0.61800
C479        C  0.31239471  0.81849438  0.59196265     0.94900
C480        C  0.31275270  0.81878354  0.40280280     0.94700
N481        N  0.27288326  0.65790929  0.45226724    -0.07400
N482        N  0.27744829  0.63325699  0.42183956    -0.59900
N483        N  0.30077382  0.68606882  0.54322940    -0.05500
N484        N  0.32485978  0.68138736  0.57385224    -0.61200
N485        N  0.27229123  0.65820615  0.54336484    -0.07400
N486        N  0.27636529  0.63395777  0.57411066    -0.60200
N487        N  0.30144970  0.68566443  0.45221061    -0.05200
N488        N  0.32612180  0.68048841  0.42177278    -0.61300
Mn489      Mn  0.30323238  0.73336404  0.49748806     1.18400
C490        C  0.31083940  0.64762463  0.40338982     0.97000
C491        C  0.30932820  0.64874092  0.59257035     0.97700
N492        N  0.17943348  0.81041860  0.45256943    -0.07500
N493        N  0.17505512  0.83471913  0.42187624    -0.63800
N494        N  0.15103731  0.78262890  0.54424773    -0.06300
N495        N  0.12667674  0.78769004  0.57498309    -0.64500
N496        N  0.17955272  0.81046165  0.54399481    -0.07000
N497        N  0.17524721  0.83499670  0.57459514    -0.64000
N498        N  0.15093141  0.78258412  0.45290475    -0.05900
N499        N  0.12658272  0.78730992  0.42245906    -0.64700
Mn500      Mn  0.22706441  0.81138503  0.49790117     1.10700
C501        C  0.14190328  0.82000512  0.40362599     0.98200
C502        C  0.14205120  0.82054354  0.59337833     0.98300
N503        N  0.17745237  0.65872254  0.54351714    -0.07000
N504        N  0.17234909  0.63395476  0.57378606    -0.62400
N505        N  0.14978772  0.68771112  0.45268793    -0.06300
N506        N  0.12525330  0.68353775  0.42230213    -0.59100
N507        N  0.17770960  0.65928963  0.45222988    -0.07600
N508        N  0.17276658  0.63514718  0.42149210    -0.61900
N509        N  0.14964950  0.68723853  0.54388606    -0.06600
N510        N  0.12497310  0.68246788  0.57440628    -0.59100
Mn511      Mn  0.22507974  0.65707978  0.49779392     1.20200
Mn512      Mn  0.14892053  0.73508059  0.49851221     1.10100
Cl513      Cl  0.22607717  0.73422833  0.49787786    -0.87100
C514        C  0.13938262  0.64901432  0.59248300     0.95300
C515        C  0.13989323  0.65059365  0.40334039     0.95100
C516        C  0.37119973  0.87827930  0.66364257     0.79100
N517        N  0.35734294  0.86290462  0.96236429    -0.79200
C518        C  0.32870170  0.83345026  0.96242890     0.81600
N519        N  0.31418423  0.81880001  0.99718385    -0.79100
C520        C  0.32831723  0.83389794  0.69861707     0.81600
N521        N  0.35682155  0.86348222  0.69848685    -0.80900
C522        C  0.08198500  0.87957451  0.66572408     0.79100
N523        N  0.09622925  0.86468876  0.96313623    -0.79200
C524        C  0.12530376  0.83569162  0.96304953     0.81600
N525        N  0.13999481  0.82151366  0.99771862    -0.79100
C526        C  0.12647825  0.83693110  0.70023089     0.81600
N527        N  0.09683921  0.86536591  0.70040790    -0.80900
C528        C  0.36984648  0.58921842  0.66288211     0.79100
N529        N  0.35475385  0.60234687  0.96245466    -0.79200
C530        C  0.32536381  0.63111166  0.96305428     0.81600
N531        N  0.31124122  0.64540062  0.99816221    -0.79100
C532        C  0.32665475  0.63247468  0.69872764     0.81600
N533        N  0.35592544  0.60368821  0.69801707    -0.80900
N534        N  0.47613555  0.92168571  0.66580014    -0.37700
N535        N  0.03847865  0.98441189  0.66520667    -0.58300
N536        N  0.47570609  0.54728520  0.66127623    -0.37700
N537        N  0.41323683  0.98380449  0.66189346    -0.58300
C538        C  0.00959389  0.89875820  0.66033750     0.25900
C539        C  0.44337477  0.89811132  0.65932080     0.25900
C540        C  0.00847370  0.56899468  0.65856657     0.25900
C541        C  0.44234248  0.57066656  0.66544148     0.25900
C542        C  0.06238509  0.95177668  0.67101894     0.34500
C543        C  0.06159157  0.51717978  0.67177849     0.34500
C544        C  0.38956430  0.95088525  0.66748505     0.34500
C545        C  0.38885439  0.51687690  0.65939057     0.34500
C546        C  0.49764941  0.85935216  0.65077877    -0.23000
C547        C  0.45600978  0.85912180  0.65016750    -0.23000
C548        C  0.49574858  0.61060132  0.67343793    -0.23000
C549        C  0.45414362  0.61028431  0.67277004    -0.23000
C550        C  0.10145040  0.96413632  0.67960875    -0.24100
C551        C  0.10050757  0.50543477  0.68163330    -0.24100
C552        C  0.35013458  0.96279897  0.67557904    -0.24100
C553        C  0.34891548  0.50446767  0.65602471    -0.24100
C554        C  0.05019964  0.91106163  0.66601346    -0.19400
C555        C  0.40245387  0.91022226  0.66352321    -0.19400
C556        C  0.40155262  0.55775630  0.66206880    -0.19400
C557        C  0.04908186  0.55761917  0.66565059    -0.19400
H558        H  0.01721234  0.83490747  0.64123805     0.13500
H559        H  0.43722456  0.83302615  0.64411921     0.13500
H560        H  0.01543007  0.63194698  0.63663052     0.13500
H561        H  0.43483199  0.63638371  0.67719309     0.13500
H562        H  0.12759036  0.94521872  0.68494246     0.11800
H563        H  0.12619350  0.52476657  0.68759855     0.11800
H564        H  0.32414945  0.94356699  0.68090393     0.11800
H565        H  0.32221750  0.52335653  0.65428789     0.11800
H566        H  0.47571759  0.95134740  0.67543494     0.25000
H567        H  0.47613709  0.51699564  0.65390433     0.25000
C568        C  0.08035968  0.58966353  0.66524239     0.79100
N569        N  0.09473758  0.60474942  0.69982320    -0.79200
C570        C  0.12349283  0.63413212  0.69938534     0.81600
N571        N  0.13884633  0.64820361  0.99785129    -0.79100
C572        C  0.12446130  0.63382967  0.96311704     0.81600
N573        N  0.09539382  0.60484572  0.96309214    -0.80900
N574        N  0.27482661  0.80883228  0.87661794    -0.07200
N575        N  0.28000960  0.83334178  0.90701163    -0.59400
N576        N  0.30259531  0.78038779  0.78507256    -0.06900
N577        N  0.32683509  0.78464121  0.75412010    -0.61500
N578        N  0.27501089  0.80915178  0.78553104    -0.06600
N579        N  0.28000174  0.83367843  0.75505697    -0.59300
N580        N  0.30253855  0.78022212  0.87645010    -0.06200
N581        N  0.32713053  0.78457278  0.90676028    -0.61800
C582        C  0.31281529  0.81792968  0.92525841     0.94900
C583        C  0.31248700  0.81810207  0.73596979     0.94700
N584        N  0.27315787  0.65764246  0.78515298    -0.07400
N585        N  0.27770069  0.63335414  0.75444116    -0.59900
N586        N  0.30103954  0.68513601  0.87667475    -0.05500
N587        N  0.32507159  0.68021967  0.90736463    -0.61200
N588        N  0.27252050  0.65730520  0.87661860    -0.07400
N589        N  0.27653054  0.63290270  0.90732405    -0.60200
N590        N  0.30179281  0.68531267  0.78542654    -0.05200
N591        N  0.32651328  0.68043659  0.75498407    -0.61300
Mn592      Mn  0.30342518  0.73273928  0.83089145     1.18400
C593        C  0.31120728  0.64781376  0.73624360     0.97000
C594        C  0.30952012  0.64747395  0.92600070     0.97700
N595        N  0.17982531  0.81050789  0.78591767    -0.07500
N596        N  0.17538171  0.83527706  0.75559900    -0.63800
N597        N  0.15099832  0.78208802  0.87689637    -0.06300
N598        N  0.12612366  0.78710211  0.90720718    -0.64500
N599        N  0.17954081  0.80987939  0.87708153    -0.07000
N600        N  0.17472506  0.83440036  0.90759599    -0.64000
N601        N  0.15125071  0.78274365  0.78599327    -0.05900
N602        N  0.12670707  0.78806288  0.75580593    -0.64700
Mn603      Mn  0.22734387  0.81103446  0.83131960     1.10700
C604        C  0.14203671  0.82099130  0.73737596     0.98200
C605        C  0.14121556  0.81991730  0.92580993     0.98300
N606        N  0.17768842  0.65844157  0.87626681    -0.07000
N607        N  0.17291096  0.63406224  0.90686704    -0.62400
N608        N  0.15008122  0.68752153  0.78531566    -0.06300
N609        N  0.12538760  0.68315102  0.75506257    -0.59100
N610        N  0.17790275  0.65899344  0.78500211    -0.07600
N611        N  0.17271489  0.63459023  0.75449872    -0.61900
N612        N  0.14999237  0.68706509  0.87664045    -0.06600
N613        N  0.12577104  0.68281783  0.90757295    -0.59100
Mn614      Mn  0.22530051  0.65663186  0.83067660     1.20200
Mn615      Mn  0.14917848  0.73483925  0.83120427     1.10100
Cl616      Cl  0.22631240  0.73382115  0.83096266    -0.87100
C617        C  0.14035971  0.64957566  0.92586620     0.95300
C618        C  0.13977154  0.64991877  0.73637354     0.95100
C619        C  0.87173821  0.37825974  0.99574189     0.79100
N620        N  0.85668421  0.36306499  0.29513391    -0.79200
C621        C  0.82781586  0.33383589  0.29545430     0.81600
N622        N  0.81357889  0.31923406  0.33032264    -0.79100
C623        C  0.82919023  0.33382902  0.03113968     0.81600
N624        N  0.85758403  0.36354301  0.03073235    -0.80900
C625        C  0.58185998  0.37884155  0.99817847     0.79100
N626        N  0.59643285  0.36514629  0.29574034    -0.79200
C627        C  0.62565226  0.33627734  0.29557054     0.81600
N628        N  0.64023638  0.32191163  0.33024919    -0.79100
C629        C  0.62688481  0.33620285  0.03208025     0.81600
N630        N  0.59741394  0.36484946  0.03266908    -0.80900
C631        C  0.86996598  0.08830569  0.99572171     0.79100
N632        N  0.85531650  0.10240064  0.29533351    -0.79200
C633        C  0.82609795  0.13133744  0.29554072     0.81600
N634        N  0.81180673  0.14595772  0.33041523    -0.79100
C635        C  0.82667641  0.13177852  0.03136070     0.81600
N636        N  0.85590977  0.10290941  0.03078968    -0.80900
N637        N  0.97671676  0.42195295  0.99413156    -0.37700
N638        N  0.53879218  0.48391069  0.99873117    -0.58300
N639        N  0.97579929  0.04643607  0.99420400    -0.37700
N640        N  0.91369538  0.48379000  0.99563640    -0.58300
C641        C  0.50968401  0.39869489  0.00483162     0.25900
C642        C  0.94373116  0.39866031  0.00109027     0.25900
C643        C  0.50851525  0.06918762  0.00289691     0.25900
C644        C  0.94243419  0.06933117  0.00073401     0.25900
C645        C  0.56267235  0.45119124  0.99292480     0.34500
C646        C  0.56242729  0.01712131  0.99266388     0.34500
C647        C  0.89022296  0.45080577  0.98998555     0.34500
C648        C  0.88975618  0.01621988  0.98969261     0.34500
C649        C  0.99764830  0.36065151  0.01316939    -0.23000
C650        C  0.95603449  0.36034131  0.01273809    -0.23000
C651        C  0.99581482  0.10839984  0.01207778    -0.23000
C652        C  0.95417303  0.10806606  0.01165838    -0.23000
C653        C  0.60179331  0.46341087  0.98387476    -0.24100
C654        C  0.60194800  0.00531764  0.98480593    -0.24100
C655        C  0.85099350  0.46257065  0.98136284    -0.24100
C656        C  0.85081274  0.00376432  0.98068863    -0.24100
C657        C  0.55036519  0.41058987  0.99857066    -0.19400
C658        C  0.90296374  0.41031326  0.99526586    -0.19400
C659        C  0.90182588  0.05691578  0.99505059    -0.19400
C660        C  0.54947562  0.05762605  0.99759534    -0.19400
H661        H  0.51664575  0.33599345  0.02728586     0.13500
H662        H  0.93706702  0.33461526  0.01986372     0.13500
H663        H  0.51452989  0.13295722  0.02261775     0.13500
H664        H  0.93481609  0.13366802  0.01820842     0.13500
H665        H  0.62791139  0.44438514  0.97842679     0.11800
H666        H  0.62800595  0.02461191  0.98006389     0.11800
H667        H  0.82511336  0.44325713  0.97616433     0.11800
H668        H  0.82467160  0.02261691  0.97516006     0.11800
H669        H  0.97672618  0.45100193  0.98270996     0.25000
H670        H  0.97624377  0.01719831  0.98333549     0.25000
C671        C  0.58066328  0.08972846  0.99769983     0.79100
N672        N  0.59504292  0.10438375  0.03245818    -0.79200
C673        C  0.62413936  0.13344026  0.03233769     0.81600
N674        N  0.63881735  0.14812614  0.33048855    -0.79100
C675        C  0.62415781  0.13354847  0.29594752     0.81600
N676        N  0.59512854  0.10445865  0.29637199    -0.80900
N677        N  0.77459576  0.30921105  0.20924091    -0.07200
N678        N  0.77937063  0.33362203  0.23978782    -0.59400
N679        N  0.80318379  0.28071738  0.11785170    -0.06900
N680        N  0.82768608  0.28499364  0.08708591    -0.61500
N681        N  0.77547367  0.30935609  0.11800398    -0.06600
N682        N  0.78058881  0.33375586  0.08743419    -0.59300
N683        N  0.80227775  0.28055545  0.20933116    -0.06200
N684        N  0.82642139  0.28477737  0.23999609    -0.61800
C685        C  0.81188081  0.31807487  0.25842129     0.94900
C686        C  0.81334280  0.31830526  0.06866296     0.94700
N687        N  0.77356527  0.15757853  0.11811383    -0.07400
N688        N  0.77802932  0.13308061  0.08752877    -0.59900
N689        N  0.80143909  0.18543093  0.20942072    -0.05500
N690        N  0.82576076  0.18034542  0.23985796    -0.61200
N691        N  0.77293281  0.15759636  0.20947651    -0.07400
N692        N  0.77723763  0.13300408  0.23997786    -0.60200
N693        N  0.80212444  0.18535652  0.11807997    -0.05200
N694        N  0.82665743  0.18033011  0.08746736    -0.61300
Mn695      Mn  0.80369765  0.23302302  0.16365255     1.18400
C696        C  0.81134002  0.14751504  0.06895128     0.97000
C697        C  0.81042527  0.14744134  0.25838474     0.97700
N698        N  0.68032224  0.31024116  0.11790972    -0.07500
N699        N  0.67601480  0.33472659  0.08734087    -0.63800
N700        N  0.65109917  0.28249093  0.20928177    -0.06300
N701        N  0.62644077  0.28747850  0.23978511    -0.64500
N702        N  0.67946551  0.31047023  0.20917983    -0.07000
N703        N  0.67470317  0.33509909  0.23964464    -0.64000
N704        N  0.65184305  0.28236293  0.11806233    -0.05900
N705        N  0.62754705  0.28729775  0.08762057    -0.64700
Mn706      Mn  0.72749345  0.31127816  0.16358135     1.10700
C707        C  0.64288213  0.32011051  0.06899546     0.98200
C708        C  0.64143854  0.32047345  0.25819563     0.98300
N709        N  0.67790431  0.15863712  0.20938068    -0.07000
N710        N  0.67287775  0.13407899  0.23982596    -0.62400
N711        N  0.65031784  0.18709240  0.11826678    -0.06300
N712        N  0.62560261  0.18241412  0.08807144    -0.59100
N713        N  0.67825471  0.15868375  0.11807463    -0.07600
N714        N  0.67316074  0.13409342  0.08769046    -0.61900
N715        N  0.65002698  0.18710401  0.20955676    -0.06600
N716        N  0.62540264  0.18248651  0.24016994    -0.59100
Mn717      Mn  0.72565971  0.15674946  0.16372431     1.20200
Mn718      Mn  0.64941015  0.23480656  0.16381398     1.10100
Cl719      Cl  0.72656288  0.23397151  0.16365321    -0.87100
C720        C  0.63991165  0.14917947  0.25848087     0.95300
C721        C  0.64010385  0.14914069  0.06952794     0.95100
C722        C  0.87136137  0.37764093  0.32975980     0.79100
N723        N  0.85713634  0.36318667  0.62827370    -0.79200
C724        C  0.82828174  0.33389111  0.62836444     0.81600
N725        N  0.81380468  0.31927699  0.66316948    -0.79100
C726        C  0.82806082  0.33384909  0.36490843     0.81600
N727        N  0.85690589  0.36309093  0.36466807    -0.80900
C728        C  0.58181514  0.37971080  0.33059401     0.79100
N729        N  0.59658498  0.36508534  0.62975514    -0.79200
C730        C  0.62538366  0.33580176  0.62951703     0.81600
N731        N  0.63992833  0.32132811  0.66415745    -0.79100
C732        C  0.62576015  0.33637468  0.36514086     0.81600
N733        N  0.59652908  0.36530529  0.36531377    -0.80900
C734        C  0.87020099  0.08813512  0.33003671     0.79100
N735        N  0.85515436  0.10272312  0.62783722    -0.79200
C736        C  0.82579459  0.13147578  0.62792084     0.81600
N737        N  0.81143233  0.14632816  0.66264430    -0.79100
C738        C  0.82657319  0.13174098  0.36505408     0.81600
N739        N  0.85576694  0.10286082  0.36488858    -0.80900
N740        N  0.97656761  0.42105272  0.32790229    -0.37700
N741        N  0.53863323  0.48473432  0.33203045    -0.58300
N742        N  0.97581537  0.04603432  0.32962502    -0.37700
N743        N  0.91326642  0.48312828  0.33114232    -0.58300
C744        C  0.50949852  0.39937939  0.33602275     0.25900
C745        C  0.94352793  0.39765504  0.33437093     0.25900
C746        C  0.50847592  0.06980446  0.33716365     0.25900
C747        C  0.94244607  0.06875871  0.33659293     0.25900
C748        C  0.56258478  0.45212825  0.32586294     0.34500
C749        C  0.56225508  0.01752556  0.32660221     0.34500
C750        C  0.88963286  0.45021037  0.32586836     0.34500
C751        C  0.88986230  0.01589877  0.32447965     0.34500
C752        C  0.99743965  0.35931698  0.34562855    -0.23000
C753        C  0.95581729  0.35904731  0.34512233    -0.23000
C754        C  0.99577740  0.10743005  0.34936223    -0.23000
C755        C  0.95412973  0.10713322  0.34874658    -0.23000
C756        C  0.60180634  0.46449068  0.31751614    -0.24100
C757        C  0.60171019  0.00576663  0.31837627    -0.24100
C758        C  0.85003007  0.46210003  0.31912305    -0.24100
C759        C  0.85104308  0.00355353  0.31490198    -0.24100
C760        C  0.55024638  0.41142756  0.33058869    -0.19400
C761        C  0.90265655  0.40958501  0.32946200    -0.19400
C762        C  0.90194119  0.05658839  0.32995833    -0.19400
C763        C  0.54938620  0.05807098  0.33175433    -0.19400
H764        H  0.51634790  0.33629568  0.35745853     0.13500
H765        H  0.93681496  0.33324504  0.35189838     0.13500
H766        H  0.51453446  0.13401609  0.35554643     0.13500
H767        H  0.93474599  0.13253917  0.35592871     0.13500
H768        H  0.62797383  0.44555683  0.31200269     0.11800
H769        H  0.62777044  0.02508031  0.31374675     0.11800
H770        H  0.82397893  0.44286842  0.31443960     0.11800
H771        H  0.82508081  0.02248545  0.30887560     0.11800
H772        H  0.97660808  0.45036695  0.31723813     0.25000
H773        H  0.97628516  0.01716339  0.31772518     0.25000
C774        C  0.58061094  0.09011722  0.33137078     0.79100
N775        N  0.59536248  0.10480298  0.36591921    -0.79200
C776        C  0.62445787  0.13380726  0.36544153     0.81600
N777        N  0.63807341  0.14854228  0.66411224    -0.79100
C778        C  0.62370071  0.13399164  0.62943675     0.81600
N779        N  0.59486024  0.10472356  0.62958068    -0.80900
N780        N  0.77402174  0.30907304  0.54264614    -0.07200
N781        N  0.77917241  0.33352401  0.57312199    -0.59400
N782        N  0.80199737  0.28062219  0.45117993    -0.06900
N783        N  0.82651184  0.28495240  0.42048454    -0.61500
N784        N  0.77426945  0.30923388  0.45142667    -0.06600
N785        N  0.77938745  0.33372824  0.42096311    -0.59300
N786        N  0.80194423  0.28064783  0.54232814    -0.06200
N787        N  0.82668004  0.28514829  0.57251812    -0.61800
C788        C  0.81222864  0.31834981  0.59118714     0.94900
C789        C  0.81215805  0.31830302  0.40222765     0.94700
N790        N  0.77284289  0.15772219  0.45127911    -0.07400
N791        N  0.77752283  0.13310667  0.42081995    -0.59900
N792        N  0.80083326  0.18554853  0.54225525    -0.05500
N793        N  0.82538629  0.18034280  0.57244259    -0.61200
N794        N  0.77234563  0.15771136  0.54238025    -0.07400
N795        N  0.77686291  0.13295538  0.57267926    -0.60200
N796        N  0.80130987  0.18557480  0.45124489    -0.05200
N797        N  0.82601855  0.18051270  0.42080046    -0.61300
Mn798      Mn  0.80290636  0.23311377  0.49674193     1.18400
C799        C  0.81088219  0.14759743  0.40236771     0.97000
C800        C  0.81019378  0.14732929  0.59082889     0.97700
N801        N  0.67899259  0.31037927  0.45136266    -0.07500
N802        N  0.67454798  0.33496702  0.42086248    -0.63800
N803        N  0.65018182  0.28236280  0.54279808    -0.06300
N804        N  0.62569221  0.28722545  0.57346461    -0.64500
N805        N  0.67871772  0.31016347  0.54283769    -0.07000
N806        N  0.67427555  0.33452447  0.57353588    -0.64000
N807        N  0.65061583  0.28240015  0.45136687    -0.05900
N808        N  0.62631202  0.28734324  0.42088146    -0.64700
Mn809      Mn  0.72650227  0.31117960  0.49709259     1.10700
C810        C  0.64146881  0.32034293  0.40237195     0.98200
C811        C  0.64101273  0.31995492  0.59210150     0.98300
N812        N  0.67737570  0.15881971  0.54274571    -0.07000
N813        N  0.67256411  0.13451432  0.57341802    -0.62400
N814        N  0.64985598  0.18720963  0.45154452    -0.06300
N815        N  0.62551867  0.18271382  0.42106090    -0.59100
N816        N  0.67787420  0.15888980  0.45140372    -0.07600
N817        N  0.67326867  0.13455128  0.42078343    -0.61900
N818        N  0.64939126  0.18718060  0.54282800    -0.06600
N819        N  0.62490282  0.18274325  0.57355869    -0.59100
Mn820      Mn  0.72504476  0.15687216  0.49694951     1.20200
Mn821      Mn  0.64854758  0.23479663  0.49713258     1.10100
Cl822      Cl  0.72574252  0.23400934  0.49697826    -0.87100
C823        C  0.63963558  0.14968984  0.59209254     0.95300
C824        C  0.64042272  0.14969858  0.40241342     0.95100
C825        C  0.87149108  0.37779203  0.66305908     0.79100
N826        N  0.85721761  0.36336522  0.96117098    -0.79200
C827        C  0.82877710  0.33371000  0.96159533     0.81600
N828        N  0.81483161  0.31897770  0.99656151    -0.79100
C829        C  0.82804120  0.33387622  0.69788341     0.81600
N830        N  0.85681411  0.36315685  0.69782596    -0.80900
C831        C  0.58228104  0.37986253  0.66463994     0.79100
N832        N  0.59588774  0.36413923  0.96315171    -0.79200
C833        C  0.62537379  0.33554958  0.96262848     0.81600
N834        N  0.64080620  0.32160031  0.99707148    -0.79100
C835        C  0.62575619  0.33605401  0.69905577     0.81600
N836        N  0.59687399  0.36530166  0.69931568    -0.80900
C837        C  0.87017621  0.08886461  0.66259725     0.79100
N838        N  0.85470809  0.10265051  0.96125469    -0.79200
C839        C  0.82546129  0.13150115  0.96181674     0.81600
N840        N  0.81149935  0.14604503  0.99687818    -0.79100
C841        C  0.82635394  0.13257820  0.69735551     0.81600
N842        N  0.85574213  0.10385748  0.69736927    -0.80900
N843        N  0.97621794  0.42124011  0.66703874    -0.37700
N844        N  0.53897780  0.48512404  0.66444354    -0.58300
N845        N  0.97548522  0.04641652  0.66570148    -0.37700
N846        N  0.91338622  0.48332801  0.66281250    -0.58300
C847        C  0.50980371  0.39875003  0.66715135     0.25900
C848        C  0.94356866  0.39829698  0.65823915     0.25900
C849        C  0.50843026  0.06954168  0.65787443     0.25900
C850        C  0.94250583  0.06913709  0.65746990     0.25900
C851        C  0.56354689  0.45244017  0.66284234     0.34500
C852        C  0.56164047  0.01756279  0.67041068     0.34500
C853        C  0.88978654  0.45037496  0.66843383     0.34500
C854        C  0.88918227  0.01644228  0.66745600     0.34500
C855        C  0.99794261  0.36071005  0.64618426    -0.23000
C856        C  0.95631698  0.36043610  0.64549333    -0.23000
C857        C  0.99640722  0.10756495  0.64593778    -0.23000
C858        C  0.95477489  0.10733702  0.64531441    -0.23000
C859        C  0.60361173  0.46482617  0.66084296    -0.24100
C860        C  0.60058706  0.00584321  0.68015622    -0.24100
C861        C  0.85041579  0.46217490  0.67695453    -0.24100
C862        C  0.84970491  0.00422479  0.67483082    -0.24100
C863        C  0.55072405  0.41154812  0.66470983    -0.19400
C864        C  0.90263885  0.40987961  0.66331064    -0.19400
C865        C  0.90169674  0.05709880  0.66270106    -0.19400
C866        C  0.54905307  0.05804315  0.66461805    -0.19400
H867        H  0.51674966  0.33324550  0.68004359     0.13500
H868        H  0.93761543  0.33513354  0.63669816     0.13500
H869        H  0.51541011  0.13255490  0.63610165     0.13500
H870        H  0.93574101  0.13261355  0.63715803     0.13500
H871        H  0.63035367  0.44591401  0.65992382     0.11800
H872        H  0.62624729  0.02518711  0.68618096     0.11800
H873        H  0.82445946  0.44287482  0.68217864     0.11800
H874        H  0.82335826  0.02323735  0.67911148     0.11800
H875        H  0.97569092  0.44987818  0.67961128     0.25000
H876        H  0.97535546  0.01767201  0.67780875     0.25000
C877        C  0.58029673  0.09009126  0.66443337     0.79100
N878        N  0.59475343  0.10475522  0.69913080    -0.79200
C879        C  0.62361266  0.13400803  0.69894375     0.81600
N880        N  0.63881687  0.14779874  0.99750464    -0.79100
C881        C  0.62453804  0.13322020  0.96279253     0.81600
N882        N  0.59553132  0.10413574  0.96289018    -0.80900
N883        N  0.77446752  0.30892570  0.87594262    -0.07200
N884        N  0.77971714  0.33342258  0.90635838    -0.59400
N885        N  0.80232613  0.28077116  0.78444020    -0.06900
N886        N  0.82665657  0.28503422  0.75358344    -0.61500
N887        N  0.77455830  0.30933968  0.78471874    -0.06600
N888        N  0.77945329  0.33372253  0.75411697    -0.59300
N889        N  0.80221168  0.28032386  0.87572303    -0.06200
N890        N  0.82686724  0.28468306  0.90599456    -0.61800
C891        C  0.81256492  0.31800606  0.92457175     0.94900
C892        C  0.81210400  0.31823995  0.73520920     0.94700
N893        N  0.77271440  0.15807990  0.78386115    -0.07400
N894        N  0.77712966  0.13389264  0.75303043    -0.59900
N895        N  0.80114025  0.18520210  0.87539751    -0.05500
N896        N  0.82521701  0.18037136  0.90605077    -0.61200
N897        N  0.77266441  0.15734452  0.87543205    -0.07400
N898        N  0.77671680  0.13300175  0.90615461    -0.60200
N899        N  0.80124068  0.18588003  0.78398374    -0.05200
N900        N  0.82571470  0.18119813  0.75329168    -0.61300
Mn901      Mn  0.80316090  0.23300462  0.82990062     1.18400
C902        C  0.81040143  0.14855546  0.73454322     0.97000
C903        C  0.80968445  0.14766972  0.92475038     0.97700
N904        N  0.67931854  0.31017786  0.78494272    -0.07500
N905        N  0.67484646  0.33465929  0.75438481    -0.63800
N906        N  0.65060288  0.28210537  0.87623031    -0.06300
N907        N  0.62583596  0.28711242  0.90663231    -0.64500
N908        N  0.67909927  0.30994373  0.87628919    -0.07000
N909        N  0.67438783  0.33445357  0.90682836    -0.64000
N910        N  0.65079679  0.28234389  0.78519763    -0.05900
N911        N  0.62629666  0.28733255  0.75489951    -0.64700
Mn912      Mn  0.72688111  0.31107306  0.83050128     1.10700
C913        C  0.64155681  0.32014332  0.73619753     0.98200
C914        C  0.64095007  0.31996641  0.92516363     0.98300
N915        N  0.67778696  0.15829108  0.87589639    -0.07000
N916        N  0.67301848  0.13374878  0.90640155    -0.62400
N917        N  0.64978423  0.18722898  0.78499388    -0.06300
N918        N  0.62516777  0.18284266  0.75469770    -0.59100
N919        N  0.67761945  0.15873652  0.78470517    -0.07600
N920        N  0.67251227  0.13429464  0.75423829    -0.61900
N921        N  0.64999817  0.18684591  0.87635912    -0.06600
N922        N  0.62574073  0.18235581  0.90725194    -0.59100
Mn923      Mn  0.72521396  0.15666366  0.82992515     1.20200
Mn924      Mn  0.64888508  0.23463622  0.83072781     1.10100
Cl925      Cl  0.72602669  0.23387236  0.83028838    -0.87100
C926        C  0.64036584  0.14904984  0.92544451     0.95300
C927        C  0.63961188  0.14960518  0.73606845     0.95100
C928        C  0.87198290  0.87814845  0.99657960     0.79100
N929        N  0.85719985  0.86311360  0.29611492    -0.79200
C930        C  0.82852498  0.83368805  0.29623912     0.81600
N931        N  0.81416933  0.81901416  0.33107633    -0.79100
C932        C  0.82916973  0.83382371  0.03168870     0.81600
N933        N  0.85768349  0.86339102  0.03147271    -0.80900
C934        C  0.58209371  0.87912916  0.99856393     0.79100
N935        N  0.59694083  0.86499190  0.29641364    -0.79200
C936        C  0.62655025  0.83652784  0.29647559     0.81600
N937        N  0.64118208  0.82250844  0.33124289    -0.79100
C938        C  0.62682660  0.83633792  0.03279923     0.81600
N939        N  0.59744080  0.86513372  0.03318657    -0.80900
C940        C  0.87012087  0.58853713  0.99641816     0.79100
N941        N  0.85566943  0.60262228  0.29624870    -0.79200
C942        C  0.82689911  0.63197969  0.29605619     0.81600
N943        N  0.81250570  0.64700571  0.33075184    -0.79100
C944        C  0.82608994  0.63138385  0.03191089     0.81600
N945        N  0.85580914  0.60300906  0.03144139    -0.80900
N946        N  0.97671938  0.92189719  0.99547408    -0.37700
N947        N  0.53879534  0.98416068  0.99803758    -0.58300
N948        N  0.97580030  0.54671407  0.99415247    -0.37700
N949        N  0.91365463  0.98365366  0.99573077    -0.58300
C950        C  0.50970504  0.89888985  0.00419979     0.25900
C951        C  0.94372521  0.89888430  0.00317035     0.25900
C952        C  0.50857346  0.56907021  0.00329677     0.25900
C953        C  0.94244753  0.56912838  0.00219563     0.25900
C954        C  0.56289381  0.95147235  0.99307368     0.34500
C955        C  0.56234139  0.51686982  0.99287840     0.34500
C956        C  0.89034352  0.95057998  0.99009320     0.34500
C957        C  0.88977548  0.51644807  0.99007741     0.34500
C958        C  0.99760196  0.86134800  0.01671386    -0.23000
C959        C  0.95597391  0.86103958  0.01626554    -0.23000
C960        C  0.99575754  0.60733750  0.01612735    -0.23000
C961        C  0.95412445  0.60701553  0.01567908    -0.23000
C962        C  0.60223971  0.96372817  0.98504031    -0.24100
C963        C  0.60159381  0.50501330  0.98390157    -0.24100
C964        C  0.85120133  0.96217748  0.98088261    -0.24100
C965        C  0.85070652  0.50414636  0.98141178    -0.24100
C966        C  0.55051258  0.91087389  0.99858265    -0.19400
C967        C  0.90307664  0.91024346  0.99629212    -0.19400
C968        C  0.90190142  0.55706077  0.99579660    -0.19400
C969        C  0.54954529  0.55742022  0.99806796    -0.19400
H970        H  0.51663094  0.83595537  0.02596389     0.13500
H971        H  0.93698219  0.83556236  0.02415185     0.13500
H972        H  0.51458360  0.63322784  0.02177409     0.13500
H973        H  0.93473088  0.63199714  0.02415135     0.13500
H974        H  0.62856792  0.94474388  0.98052459     0.11800
H975        H  0.62751065  0.52428595  0.97839824     0.11800
H976        H  0.82540922  0.94276665  0.97560658     0.11800
H977        H  0.82453309  0.52308838  0.97632390     0.11800
H978        H  0.97676036  0.95036017  0.98274589     0.25000
H979        H  0.97627135  0.51826428  0.98126583     0.25000
C980        C  0.58081264  0.58953325  0.99830989     0.79100
N981        N  0.59522899  0.60396222  0.03316032    -0.79200
C982        C  0.62395706  0.63340402  0.03324677     0.81600
N983        N  0.63858353  0.64863160  0.33216492    -0.79100
C984        C  0.62413496  0.63425214  0.29746381     0.81600
N985        N  0.59520692  0.60502918  0.29762101    -0.80900
N986        N  0.77533368  0.80927922  0.20978140    -0.07200
N987        N  0.78009144  0.83354457  0.24045871    -0.59400
N988        N  0.80321523  0.78057564  0.11816886    -0.06900
N989        N  0.82758967  0.78479597  0.08732070    -0.61500
N990        N  0.77562201  0.80931487  0.11850179    -0.06600
N991        N  0.78069005  0.83376896  0.08798070    -0.59300
N992        N  0.80311552  0.78071138  0.20967332    -0.06200
N993        N  0.82734337  0.78491512  0.24031411    -0.61800
C994        C  0.81270454  0.81806040  0.25898998     0.94900
C995        C  0.81327875  0.81819030  0.06905620     0.94700
N996        N  0.77314581  0.65760219  0.11862036    -0.07400
N997        N  0.77739611  0.63305402  0.08803907    -0.59900
N998        N  0.80203123  0.68545430  0.20965204    -0.05500
N999        N  0.82660778  0.68043114  0.23990215    -0.61200
N1000       N  0.77344570  0.65768961  0.21001143    -0.07400
N1001       N  0.77798482  0.63320260  0.24055693    -0.60200
N1002       N  0.80181098  0.68528731  0.11843395    -0.05200
N1003       N  0.82623658  0.68008984  0.08777895    -0.61300
Mn1004     Mn  0.80397787  0.73300492  0.16395073     1.18400
C1005       C  0.81073734  0.64731049  0.06937775     0.97000
C1006       C  0.81136152  0.64763019  0.25865763     0.97700
N1007       N  0.68048407  0.81034479  0.11867149    -0.07500
N1008       N  0.67606610  0.83484233  0.08810605    -0.63800
N1009       N  0.65166869  0.78271890  0.21016622    -0.06300
N1010       N  0.62713969  0.78774022  0.24075222    -0.64500
N1011       N  0.68020842  0.81051685  0.21008766    -0.07000
N1012       N  0.67573379  0.83502835  0.24067940    -0.64000
N1013       N  0.65198237  0.78248151  0.11888762    -0.05900
N1014       N  0.62757386  0.78746430  0.08851698    -0.64700
Mn1015     Mn  0.72793399  0.81131512  0.16426955     1.10700
C1016       C  0.64282147  0.82031063  0.06984937     0.98200
C1017       C  0.64243292  0.82053166  0.25925445     0.98300
N1018       N  0.67806969  0.65894294  0.21070776    -0.07000
N1019       N  0.67301597  0.63458005  0.24132346    -0.62400
N1020       N  0.65019128  0.68710303  0.11928271    -0.06300
N1021       N  0.62555551  0.68250637  0.08899234    -0.59100
N1022       N  0.67790390  0.65848130  0.11926357    -0.07600
N1023       N  0.67268383  0.63378944  0.08896102    -0.61900
N1024       N  0.65031452  0.68753696  0.21084043    -0.06600
N1025       N  0.62583300  0.68326345  0.24162882    -0.59100
Mn1026     Mn  0.72562780  0.65677818  0.16466326     1.20200
Mn1027     Mn  0.64963793  0.73499883  0.16477910     1.10100
Cl1028     Cl  0.72680188  0.73402564  0.16439487    -0.87100
C1029       C  0.64023411  0.64999376  0.26009498     0.95300
C1030       C  0.63980819  0.64901149  0.07060769     0.95100
C1031       C  0.87159220  0.87778810  0.33082512     0.79100
N1032       N  0.85637234  0.86377456  0.62939524    -0.79200
C1033       C  0.82756529  0.83444170  0.62990245     0.81600
N1034       N  0.81381296  0.81965714  0.66490462    -0.79100
C1035       C  0.82844069  0.83368430  0.36576837     0.81600
N1036       N  0.85710281  0.86309565  0.36565407    -0.80900
C1037       C  0.58196675  0.87951153  0.33114140     0.79100
N1038       N  0.59594453  0.86488875  0.63042389    -0.79200
C1039       C  0.62540723  0.83628663  0.62997412     0.81600
N1040       N  0.64078332  0.82235526  0.66447228    -0.79100
C1041       C  0.62635084  0.83690222  0.36599995     0.81600
N1042       N  0.59671027  0.86542241  0.36597647    -0.80900
C1043       C  0.87001177  0.58833398  0.33114319     0.79100
N1044       N  0.85504894  0.60250969  0.62871719    -0.79200
C1045       C  0.82594859  0.63153335  0.62907353     0.81600
N1046       N  0.81207637  0.64649424  0.66396057    -0.79100
C1047       C  0.82677857  0.63277921  0.36560835     0.81600
N1048       N  0.85554972  0.60347860  0.36580851    -0.80900
N1049       N  0.97653350  0.92129568  0.33009717    -0.37700
N1050       N  0.53859485  0.98449127  0.33154958    -0.58300
N1051       N  0.97562452  0.54592564  0.33177051    -0.37700
N1052       N  0.91357599  0.98324839  0.33090525    -0.58300
C1053       C  0.50952108  0.89911195  0.33626942     0.25900
C1054       C  0.94351366  0.89808013  0.33704790     0.25900
C1055       C  0.50856667  0.56976854  0.33858017     0.25900
C1056       C  0.94229954  0.56935886  0.33605341     0.25900
C1057       C  0.56262726  0.95184886  0.32587254     0.34500
C1058       C  0.56226590  0.51777804  0.32702727     0.34500
C1059       C  0.89024894  0.95022963  0.32488729     0.34500
C1060       C  0.88911809  0.51589453  0.32718492     0.34500
C1061       C  0.99738329  0.86006060  0.34938694    -0.23000
C1062       C  0.95574346  0.85979009  0.34890892    -0.23000
C1063       C  0.99572739  0.60918760  0.34429112    -0.23000
C1064       C  0.95412092  0.60889274  0.34374930    -0.23000
C1065       C  0.60192995  0.96418982  0.31785112    -0.24100
C1066       C  0.60162077  0.50606706  0.31830971    -0.24100
C1067       C  0.85128648  0.96196739  0.31516579    -0.24100
C1068       C  0.84969793  0.50366431  0.32000480    -0.24100
C1069       C  0.55029554  0.91115847  0.33083541    -0.19400
C1070       C  0.90284679  0.90975786  0.33069163    -0.19400
C1071       C  0.90160303  0.55667822  0.33142214    -0.19400
C1072       C  0.54944751  0.55825278  0.33264373    -0.19400
H1073       H  0.51637055  0.83617499  0.35808980     0.13500
H1074       H  0.93672691  0.83408475  0.35599751     0.13500
H1075       H  0.51462019  0.63334876  0.35892907     0.13500
H1076       H  0.93483826  0.63503756  0.34804024     0.13500
H1077       H  0.62818739  0.94525115  0.31279050     0.11800
H1078       H  0.62762773  0.52540755  0.31350570     0.11800
H1079       H  0.82555931  0.94263864  0.30935267     0.11800
H1080       H  0.82335545  0.52266552  0.31602430     0.11800
H1081       H  0.97661332  0.95023307  0.31844220     0.25000
H1082       H  0.97601377  0.51578155  0.32397684     0.25000
C1083       C  0.58062698  0.59036100  0.33249249     0.79100
N1084       N  0.59523713  0.60482101  0.36717369    -0.79200
C1085       C  0.62418265  0.63395579  0.36696262     0.81600
N1086       N  0.63837228  0.64939422  0.66480048    -0.79100
C1087       C  0.62396034  0.63509814  0.63008013     0.81600
N1088       N  0.59519381  0.60581124  0.63000548    -0.80900
N1089       N  0.77387530  0.80942635  0.54386421    -0.07200
N1090       N  0.77869937  0.83387200  0.57440323    -0.59400
N1091       N  0.80245669  0.78094245  0.45244619    -0.06900
N1092       N  0.82684394  0.78498464  0.42160527    -0.61500
N1093       N  0.77477978  0.80959143  0.45257483    -0.06600
N1094       N  0.77982474  0.83384999  0.42191837    -0.59300
N1095       N  0.80167522  0.78087767  0.54386616    -0.06200
N1096       N  0.82597531  0.78526470  0.57441267    -0.61800
C1097       C  0.81139026  0.81851348  0.59292529     0.94900
C1098       C  0.81244711  0.81819282  0.40311963     0.94700
N1099       N  0.77303037  0.65824855  0.45209912    -0.07400
N1100       N  0.77752073  0.63402114  0.42130305    -0.59900
N1101       N  0.80096347  0.68575346  0.54340874    -0.05500
N1102       N  0.82544767  0.68053323  0.57365210    -0.61200
N1103       N  0.77247101  0.65793649  0.54345220    -0.07400
N1104       N  0.77688937  0.63319642  0.57380145    -0.60200
N1105       N  0.80154921  0.68605700  0.45225902    -0.05200
N1106       N  0.82608677  0.68135197  0.42161739    -0.61300
Mn1107     Mn  0.80308328  0.73342064  0.49802046     1.18400
C1108       C  0.81077829  0.64873497  0.40281362     0.97000
C1109       C  0.81017619  0.64757207  0.59206393     0.97700
N1110       N  0.67958516  0.81071278  0.45204524    -0.07500
N1111       N  0.67521162  0.83534267  0.42158199    -0.63800
N1112       N  0.65017428  0.78305559  0.54325680    -0.06300
N1113       N  0.62550739  0.78801486  0.57375904    -0.64500
N1114       N  0.67882366  0.81071327  0.54344760    -0.07000
N1115       N  0.67436534  0.83503298  0.57415659    -0.64000
N1116       N  0.65105174  0.78289654  0.45210141    -0.05900
N1117       N  0.62664273  0.78803695  0.42175086    -0.64700
Mn1118     Mn  0.72680461  0.81157228  0.49798207     1.10700
C1119       C  0.64193549  0.82096758  0.40325434     0.98200
C1120       C  0.64090571  0.82063463  0.59249110     0.98300
N1121       N  0.67759244  0.65956099  0.54353246    -0.07000
N1122       N  0.67276018  0.63536840  0.57424735    -0.62400
N1123       N  0.65001791  0.68766027  0.45259106    -0.06300
N1124       N  0.62540484  0.68293401  0.42237650    -0.59100
N1125       N  0.67792285  0.65923158  0.45253623    -0.07600
N1126       N  0.67292749  0.63453983  0.42226323    -0.61900
N1127       N  0.64972420  0.68804422  0.54360025    -0.06600
N1128       N  0.62531901  0.68385261  0.57439489    -0.59100
Mn1129     Mn  0.72522838  0.65729118  0.49787771     1.20200
Mn1130     Mn  0.64879324  0.73541992  0.49785867     1.10100
Cl1131     Cl  0.72595576  0.73442726  0.49788972    -0.87100
C1132       C  0.63999335  0.65080577  0.59293344     0.95300
C1133       C  0.63998301  0.64962424  0.40402383     0.95100
C1134       C  0.87145673  0.87817708  0.66395352     0.79100
N1135       N  0.85746213  0.86348963  0.96192150    -0.79200
C1136       C  0.82887860  0.83399116  0.96220172     0.81600
N1137       N  0.81481537  0.81916825  0.99705858    -0.79100
C1138       C  0.82876916  0.83408395  0.69939079     0.81600
N1139       N  0.85754271  0.86335258  0.69892910    -0.80900
C1140       C  0.58189863  0.87966679  0.66540347     0.79100
N1141       N  0.59626867  0.86431151  0.96365469    -0.79200
C1142       C  0.62557473  0.83555391  0.96330850     0.81600
N1143       N  0.64080342  0.82159500  0.99784942    -0.79100
C1144       C  0.62677961  0.83696047  0.69946989     0.81600
N1145       N  0.59731395  0.86562709  0.69995092    -0.80900
C1146       C  0.87027740  0.58847650  0.66333200     0.79100
N1147       N  0.85467683  0.60258283  0.96191197    -0.79200
C1148       C  0.82497313  0.63095606  0.96242421     0.81600
N1149       N  0.81072809  0.64531982  0.99741382    -0.79100
C1150       C  0.82719381  0.63255553  0.69854269     0.81600
N1151       N  0.85631078  0.60355927  0.69824774    -0.80900
N1152       N  0.97626677  0.92158915  0.66728504    -0.37700
N1153       N  0.53834768  0.98452571  0.66425550    -0.58300
N1154       N  0.97540764  0.54610147  0.66636719    -0.37700
N1155       N  0.91334023  0.98372969  0.66281039    -0.58300
C1156       C  0.50944232  0.89847748  0.66031144     0.25900
C1157       C  0.94355219  0.89840078  0.65932178     0.25900
C1158       C  0.50847579  0.57117120  0.66653563     0.25900
C1159       C  0.94246368  0.56854818  0.65742301     0.25900
C1160       C  0.56210595  0.95186741  0.67062524     0.34500
C1161       C  0.56303228  0.51817916  0.66287043     0.34500
C1162       C  0.88958571  0.95080627  0.66787007     0.34500
C1163       C  0.88937333  0.51600912  0.66836794     0.34500
C1164       C  0.99785439  0.86029705  0.64854626    -0.23000
C1165       C  0.95623033  0.86007094  0.64792187    -0.23000
C1166       C  0.99634648  0.60666400  0.64489586    -0.23000
C1167       C  0.95471406  0.60637970  0.64418637    -0.23000
C1168       C  0.60090209  0.96426380  0.68022390    -0.24100
C1169       C  0.60329323  0.50639930  0.66091815    -0.24100
C1170       C  0.84995558  0.96265315  0.67507076    -0.24100
C1171       C  0.85016170  0.50376010  0.67693381    -0.24100
C1172       C  0.55002063  0.91105927  0.66575167    -0.19400
C1173       C  0.90259502  0.91023506  0.66374649    -0.19400
C1174       C  0.90172490  0.55664151  0.66314916    -0.19400
C1175       C  0.54957470  0.55888049  0.66453046    -0.19400
H1176       H  0.51695575  0.83344239  0.64533428     0.13500
H1177       H  0.93747034  0.83450114  0.64000647     0.13500
H1178       H  0.51445682  0.63696532  0.67852006     0.13500
H1179       H  0.93567063  0.63136087  0.63523835     0.13500
H1180       H  0.62684236  0.94536233  0.68641798     0.11800
H1181       H  0.62975079  0.52570988  0.66004270     0.11800
H1182       H  0.82384153  0.94338354  0.67960243     0.11800
H1183       H  0.82397711  0.52276585  0.68211938     0.11800
H1184       H  0.97580017  0.95063370  0.67874504     0.25000
H1185       H  0.97524389  0.51770165  0.67938407     0.25000
C1186       C  0.58070182  0.59092084  0.66473576     0.79100
N1187       N  0.59515836  0.60527283  0.69953021    -0.79200
C1188       C  0.62399285  0.63452977  0.69949841     0.81600
N1189       N  0.63828503  0.64833520  0.99847698    -0.79100
C1190       C  0.62401261  0.63398400  0.96364216     0.81600
N1191       N  0.59532140  0.60455336  0.96358316    -0.80900
N1192       N  0.77437736  0.80896740  0.87687694    -0.07200
N1193       N  0.77975076  0.83365415  0.90711219    -0.59400
N1194       N  0.80282879  0.78088893  0.78573964    -0.06900
N1195       N  0.82753470  0.78539930  0.75520623    -0.61500
N1196       N  0.77499917  0.80940319  0.78586260    -0.06600
N1197       N  0.78016429  0.83393264  0.75544002    -0.59300
N1198       N  0.80213905  0.78038805  0.87669155    -0.06200
N1199       N  0.82697786  0.78497772  0.90675950    -0.61800
C1200       C  0.81274502  0.81839438  0.92518472     0.94900
C1201       C  0.81310916  0.81868736  0.73687243     0.94700
N1202       N  0.77315651  0.65799343  0.78489388    -0.07400
N1203       N  0.77786406  0.63371778  0.75416073    -0.59900
N1204       N  0.80076631  0.68522468  0.87648084    -0.05500
N1205       N  0.82481351  0.68014788  0.90709262    -0.61200
N1206       N  0.77232401  0.65734040  0.87627198    -0.07400
N1207       N  0.77637789  0.63269548  0.90674583    -0.60200
N1208       N  0.80173047  0.68575299  0.78520314    -0.05200
N1209       N  0.82651263  0.68094142  0.75475335    -0.61300
Mn1210     Mn  0.80326155  0.73301314  0.83104345     1.18400
C1211       C  0.81135135  0.64826155  0.73593312     0.97000
C1212       C  0.80932883  0.64722927  0.92543692     0.97700
N1213       N  0.67980520  0.81059936  0.78555627    -0.07500
N1214       N  0.67549601  0.83533558  0.75516588    -0.63800
N1215       N  0.65059624  0.78234999  0.87666462    -0.06300
N1216       N  0.62597699  0.78715279  0.90722056    -0.64500
N1217       N  0.67909296  0.81017637  0.87679610    -0.07000
N1218       N  0.67449683  0.83452669  0.90746224    -0.64000
N1219       N  0.65145238  0.78259736  0.78536461    -0.05900
N1220       N  0.62731550  0.78763472  0.75479281    -0.64700
Mn1221     Mn  0.72705708  0.81122618  0.83130251     1.10700
C1222       C  0.64255113  0.82070940  0.73649308     0.98200
C1223       C  0.64118578  0.81989675  0.92588243     0.98300
N1224       N  0.67746270  0.65865558  0.87656467    -0.07000
N1225       N  0.67267290  0.63439125  0.90729442    -0.62400
N1226       N  0.65002903  0.68748088  0.78551992    -0.06300
N1227       N  0.62540951  0.68309439  0.75525710    -0.59100
N1228       N  0.67790308  0.65903045  0.78521300    -0.07600
N1229       N  0.67287305  0.63464151  0.75470302    -0.61900
N1230       N  0.64969830  0.68724131  0.87684883    -0.06600
N1231       N  0.62544127  0.68302388  0.90780887    -0.59100
Mn1232     Mn  0.72518977  0.65679908  0.83065518     1.20200
Mn1233     Mn  0.64900903  0.73492752  0.83108709     1.10100
Cl1234     Cl  0.72612759  0.73400300  0.83098256    -0.87100
C1235       C  0.64005033  0.64986045  0.92629024     0.95300
C1236       C  0.63992094  0.64992811  0.73661528     0.95100
loop_ 
_geom_bond_atom_site_label_1 
_geom_bond_atom_site_label_2 
_geom_bond_distance 
_geom_bond_site_symmetry_2 
_ccdc_geom_bond_type 
C1            N6   1.359   1_556  A
C1          N208   1.359       .  A
C1           C40   1.478       .  S
N2            C3   1.358       .  A
N2          C104   1.359       .  A
C3            N4   1.357       .  A
C3           C67   1.461       .  S
N4          C108   1.357       .  A
C5            N6   1.357       .  A
C5          N210   1.356   1_554  A
C5           C68   1.459       .  S
C7           N12   1.360   1_556  A
C7          N214   1.358       .  A
C7           C39   1.478       .  S
N8            C9   1.357       .  A
N8          C110   1.358       .  A
C9           N10   1.356       .  A
C9           C90   1.457       .  S
N10         C114   1.356       .  A
C11          N12   1.359       .  A
C11         N216   1.357   1_554  A
C11          C89   1.464       .  S
C13          N18   1.359   1_556  A
C13         N220   1.360       .  A
C13          C41   1.479       .  S
N14          C15   1.358       .  A
N14         C116   1.360       .  A
C15          N16   1.356       .  A
C15          C79   1.461       .  S
N16         C120   1.356       .  A
C17          N18   1.358       .  A
C17         N222   1.357   1_554  A
C17          C78   1.461       .  S
N19          C24   1.353   1_556  A
N19         C641   1.353   1_556  A
N19          H51   1.036       .  S
N20          C27   1.352       .  A
N20         C337   1.351       .  A
N21          C26   1.354   1_556  A
N21         C643   1.354   1_556  A
N21          H52   1.035       .  S
N22          C29   1.352       .  A
N22         C339   1.352       .  A
C23         N637   1.354   1_454  A
C23          C39   1.416   1_554  A
C23         C649   1.387   1_455  A
C24          C40   1.416   1_554  A
C24          C32   1.388       .  A
C25         N639   1.354   1_454  A
C25          C42   1.417   1_554  A
C25         C651   1.387   1_455  A
C26          C41   1.417   1_554  A
C26          C34   1.387       .  A
C27          C39   1.414       .  A
C27          C35   1.387       .  A
C28         N329   1.351   1_545  A
C28          C42   1.414       .  A
C28          C36   1.387       .  A
C29          C37   1.387       .  A
C29          C40   1.414       .  A
C30         N331   1.351   1_545  A
C30          C38   1.387       .  A
C30          C41   1.414       .  A
C31          C32   1.377       .  A
C31         C641   1.387       .  A
C31         H661   1.082       .  S
C32          H44   1.082       .  S
C33          C34   1.376       .  A
C33         C643   1.387       .  A
C33         H663   1.082       .  S
C34          H46   1.082       .  S
C35         C345   1.373       .  A
C35          H47   1.082       .  S
C36         C344   1.374   1_545  A
C36          H48   1.082       .  S
C37         C347   1.374       .  A
C37          H49   1.082       .  S
C38         C346   1.374   1_545  A
C38          H50   1.082       .  S
C42          C53   1.478       .  S
H43         C649   1.082   1_455  S
H45         C651   1.082   1_455  S
C53          N54   1.360   1_556  A
C53         N264   1.358       .  A
N54          C55   1.358       .  A
C55         N262   1.357   1_554  A
C55         C103   1.463       .  S
N56          C57   1.356       .  A
N56         C158   1.357       .  A
C57          N58   1.358       .  A
C57         C102   1.463       .  S
N58         C156   1.360       .  A
N59          N60   1.321       .  A
N59          N65   1.316       .  A
N59         Mn88   2.206       .  S
N60          C67   1.351       .  A
N61          N63   1.317       .  A
N61          N62   1.321       .  A
N61         Mn77   2.208       .  S
N62          C68   1.351       .  A
N63          N64   1.320       .  A
N63         Mn88   2.199       .  S
N64          C68   1.350       .  A
N65          N66   1.321       .  A
N65         Mn77   2.203       .  S
N66          C67   1.351       .  A
N69          N75   1.316       .  A
N69          N70   1.321       .  A
N69         Mn99   2.207       .  S
N70          C78   1.351       .  A
N71          N72   1.321       .  A
N71          N73   1.316       .  A
N71         Mn77   2.207       .  S
N72          C79   1.351       .  A
N73          N74   1.321       .  A
N73         Mn99   2.204       .  S
N74          C79   1.351       .  A
N75          N76   1.321       .  A
N75         Mn77   2.201       .  S
N76          C78   1.351       .  A
Mn77       Cl101   2.550       .  S
N80          N81   1.322       .  A
N80          N86   1.317       .  A
N80         Mn88   2.209       .  S
N81          C89   1.352       .  A
N82          N84   1.316       .  A
N82          N83   1.320       .  A
N82        Mn100   2.200       .  S
N83          C90   1.350       .  A
N84          N85   1.320       .  A
N84         Mn88   2.201       .  S
N85          C90   1.351       .  A
N86          N87   1.321       .  A
N86        Mn100   2.208       .  S
N87          C89   1.351       .  A
Mn88       Cl101   2.553       .  S
N91          N92   1.321       .  A
N91          N97   1.316       .  A
N91         Mn99   2.204       .  S
N92         C102   1.351       .  A
N93          N94   1.321       .  A
N93          N95   1.316       .  A
N93        Mn100   2.205       .  S
N94         C103   1.352       .  A
N95          N96   1.321       .  A
N95         Mn99   2.206       .  S
N96         C103   1.352       .  A
N97          N98   1.322       .  A
N97        Mn100   2.209       .  S
N98         C102   1.352       .  A
Mn99       Cl101   2.550       .  S
Mn100      Cl101   2.550       .  S
C104        N109   1.360       .  A
C104        C143   1.479       .  S
N105        C207   1.359       .  A
N105        C106   1.357       .  A
C106        N107   1.357       .  A
C106        C170   1.461       .  S
N107        C211   1.357       .  A
C108        N109   1.358       .  A
C108        C171   1.462       .  S
C110        N115   1.359       .  A
C110        C142   1.477       .  S
N111        C213   1.360       .  A
N111        C112   1.358       .  A
C112        N113   1.356       .  A
C112        C193   1.460       .  S
N113        C217   1.356       .  A
C114        N115   1.358       .  A
C114        C192   1.459       .  S
C116        N121   1.359       .  A
C116        C144   1.479       .  S
N117        C219   1.359       .  A
N117        C118   1.358       .  A
C118        N119   1.356       .  A
C118        C182   1.459       .  S
N119        C223   1.356       .  A
C120        N121   1.357       .  A
C120        C181   1.458       .  S
N122        C127   1.354       .  A
N122        C744   1.353       .  A
N122        H154   1.036       .  S
N123        C130   1.351       .  A
N123        C440   1.352       .  A
N124        C129   1.353       .  A
N124        C746   1.353       .  A
N124        H155   1.034       .  S
N125        C132   1.352       .  A
N125        C442   1.352       .  A
C126        N740   1.354   1_455  A
C126        C752   1.387   1_455  A
C126        C142   1.417       .  A
C127        C143   1.416       .  A
C127        C135   1.387       .  A
C128        N742   1.353   1_455  A
C128        C754   1.387   1_455  A
C128        C145   1.416       .  A
C129        C144   1.418       .  A
C129        C137   1.388       .  A
C130        C142   1.415       .  A
C130        C138   1.387       .  A
C131        N432   1.352   1_545  A
C131        C145   1.414       .  A
C131        C139   1.386       .  A
C132        C140   1.386       .  A
C132        C143   1.413       .  A
C133        N434   1.352   1_545  A
C133        C141   1.387       .  A
C133        C144   1.416       .  A
C134        C744   1.387       .  A
C134        C135   1.376       .  A
C134        H764   1.082       .  S
C135        H147   1.082       .  S
C136        C746   1.388       .  A
C136        C137   1.378       .  A
C136        H766   1.082       .  S
C137        H149   1.082       .  S
C138        C448   1.373       .  A
C138        H150   1.082       .  S
C139        C447   1.373   1_545  A
C139        H151   1.082       .  S
C140        C450   1.373       .  A
C140        H152   1.082       .  S
C141        C449   1.374   1_545  A
C141        H153   1.082       .  S
C145        C156   1.479       .  S
H146        C752   1.082   1_455  S
H148        C754   1.082   1_455  S
C156        N157   1.359       .  A
N157        C158   1.357       .  A
C158        C206   1.459       .  S
N159        C261   1.355       .  A
N159        C160   1.355       .  A
C160        N161   1.357       .  A
C160        C205   1.458       .  S
N161        C259   1.359       .  A
N162        N163   1.321       .  A
N162        N168   1.316       .  A
N162       Mn191   2.205       .  S
N163        C170   1.351       .  A
N164        N166   1.316       .  A
N164        N165   1.322       .  A
N164       Mn180   2.206       .  S
N165        C171   1.352       .  A
N166        N167   1.321       .  A
N166       Mn191   2.206       .  S
N167        C171   1.351       .  A
N168        N169   1.321       .  A
N168       Mn180   2.204       .  S
N169        C170   1.351       .  A
N172        N178   1.316       .  A
N172        N173   1.320       .  A
N172       Mn202   2.202       .  S
N173        C181   1.351       .  A
N174        N175   1.320       .  A
N174        N176   1.316       .  A
N174       Mn180   2.201       .  S
N175        C182   1.350       .  A
N176        N177   1.321       .  A
N176       Mn202   2.204       .  S
N177        C182   1.351       .  A
N178        N179   1.320       .  A
N178       Mn180   2.201       .  S
N179        C181   1.351       .  A
Mn180      Cl204   2.551       .  S
N183        N184   1.321       .  A
N183        N189   1.317       .  A
N183       Mn191   2.205       .  S
N184        C192   1.351       .  A
N185        N187   1.316       .  A
N185        N186   1.321       .  A
N185       Mn203   2.201       .  S
N186        C193   1.351       .  A
N187        N188   1.321       .  A
N187       Mn191   2.206       .  S
N188        C193   1.351       .  A
N189        N190   1.320       .  A
N189       Mn203   2.201       .  S
N190        C192   1.350       .  A
Mn191      Cl204   2.549       .  S
N194        N195   1.320       .  A
N194        N200   1.316       .  A
N194       Mn202   2.199       .  S
N195        C205   1.350       .  A
N196        N197   1.320       .  A
N196        N198   1.316       .  A
N196       Mn203   2.201       .  S
N197        C206   1.351       .  A
N198        N199   1.320       .  A
N198       Mn202   2.201       .  S
N199        C206   1.351       .  A
N200        N201   1.321       .  A
N200       Mn203   2.205       .  S
N201        C205   1.352       .  A
Mn202      Cl204   2.548       .  S
Mn203      Cl204   2.551       .  S
C207        N212   1.359       .  A
C207        C246   1.477       .  S
N208        C209   1.357       .  A
C209        N210   1.356       .  A
C209        C273   1.459       .  S
C211        N212   1.357       .  A
C211        C274   1.461       .  S
C213        N218   1.359       .  A
C213        C245   1.478       .  S
N214        C215   1.357       .  A
C215        N216   1.357       .  A
C215        C296   1.460       .  S
C217        N218   1.357       .  A
C217        C295   1.460       .  S
C219        N224   1.358       .  A
C219        C247   1.477       .  S
N220        C221   1.358       .  A
C221        N222   1.357       .  A
C221        C285   1.464       .  S
C223        N224   1.357       .  A
C223        C284   1.458       .  S
N225        C230   1.353       .  A
N225        C847   1.353       .  A
N225        H257   1.032       .  S
N226        C233   1.352       .  A
N226        C543   1.352       .  A
N227        C232   1.353       .  A
N227        C849   1.353       .  A
N227        H258   1.035       .  S
N228        C235   1.351       .  A
N228        C545   1.351       .  A
C229        N843   1.353   1_455  A
C229        C855   1.388   1_455  A
C229        C245   1.416       .  A
C230        C246   1.419       .  A
C230        C238   1.388       .  A
C231        N845   1.354   1_455  A
C231        C857   1.387   1_455  A
C231        C248   1.417       .  A
C232        C247   1.414       .  A
C232        C240   1.387       .  A
C233        C245   1.414       .  A
C233        C241   1.387       .  A
C234        N535   1.352   1_545  A
C234        C248   1.414       .  A
C234        C242   1.387       .  A
C235        C243   1.387       .  A
C235        C246   1.417       .  A
C236        N537   1.352   1_545  A
C236        C244   1.386       .  A
C236        C247   1.414       .  A
C237        C847   1.388       .  A
C237        C238   1.375       .  A
C237        H867   1.082       .  S
C238        H250   1.082       .  S
C239        C849   1.387       .  A
C239        C240   1.376       .  A
C239        H869   1.082       .  S
C240        H252   1.082       .  S
C241        C551   1.374       .  A
C241        H253   1.082       .  S
C242        C550   1.373   1_545  A
C242        H254   1.082       .  S
C243        C553   1.373       .  A
C243        H255   1.083       .  S
C244        C552   1.373   1_545  A
C244        H256   1.082       .  S
C248        C259   1.479       .  S
H249        C855   1.082   1_455  S
H251        C857   1.082   1_455  S
C259        N260   1.360       .  A
N260        C261   1.358       .  A
C261        C309   1.460       .  S
N262        C263   1.357       .  A
C263        N264   1.357       .  A
C263        C308   1.461       .  S
N265        N266   1.321       .  A
N265        N271   1.316       .  A
N265       Mn294   2.205       .  S
N266        C273   1.351       .  A
N267        N269   1.317       .  A
N267        N268   1.321       .  A
N267       Mn283   2.207       .  S
N268        C274   1.351       .  A
N269        N270   1.321       .  A
N269       Mn294   2.205       .  S
N270        C274   1.351       .  A
N271        N272   1.320       .  A
N271       Mn283   2.198       .  S
N272        C273   1.350       .  A
N275        N281   1.316       .  A
N275        N276   1.320       .  A
N275       Mn305   2.202       .  S
N276        C284   1.351       .  A
N277        N278   1.321       .  A
N277        N279   1.316       .  A
N277       Mn283   2.210       .  S
N278        C285   1.352       .  A
N279        N280   1.322       .  A
N279       Mn305   2.205       .  S
N280        C285   1.352       .  A
N281        N282   1.320       .  A
N281       Mn283   2.198       .  S
N282        C284   1.351       .  A
Mn283      Cl307   2.549       .  S
N286        N287   1.321       .  A
N286        N292   1.316       .  A
N286       Mn294   2.205       .  S
N287        C295   1.352       .  A
N288        N290   1.316       .  A
N288        N289   1.321       .  A
N288       Mn306   2.199       .  S
N289        C296   1.351       .  A
N290        N291   1.321       .  A
N290       Mn294   2.207       .  S
N291        C296   1.351       .  A
N292        N293   1.320       .  A
N292       Mn306   2.203       .  S
N293        C295   1.350       .  A
Mn294      Cl307   2.551       .  S
N297        N298   1.321       .  A
N297        N303   1.316       .  A
N297       Mn305   2.201       .  S
N298        C308   1.351       .  A
N299        N300   1.321       .  A
N299        N301   1.316       .  A
N299       Mn306   2.201       .  S
N300        C309   1.351       .  A
N301        N302   1.321       .  A
N301       Mn305   2.206       .  S
N302        C309   1.351       .  A
N303        N304   1.321       .  A
N303       Mn306   2.205       .  S
N304        C308   1.352       .  A
Mn305      Cl307   2.551       .  S
Mn306      Cl307   2.549       .  S
C310        N517   1.359       .  A
C310        N315   1.360   1_556  A
C310        C349   1.480       .  S
N311        C413   1.359       .  A
N311        C312   1.358       .  A
C312        N313   1.356       .  A
C312        C376   1.461       .  S
N313        C417   1.356       .  A
C314        N519   1.356   1_554  A
C314        N315   1.359       .  A
C314        C377   1.462       .  S
C316        N523   1.358       .  A
C316        N321   1.359   1_556  A
C316        C348   1.476       .  S
N317        C419   1.358       .  A
N317        C318   1.357       .  A
C318        N319   1.357       .  A
C318        C399   1.460       .  S
N319        C423   1.357       .  A
C320        N525   1.356   1_554  A
C320        N321   1.358       .  A
C320        C398   1.460       .  S
C322        N529   1.360       .  A
C322        N327   1.360   1_556  A
C322        C350   1.481       .  S
N323        C425   1.361       .  A
N323        C324   1.359       .  A
C324        N325   1.356       .  A
C324        C388   1.464       .  S
N325        C429   1.356       .  A
C326        N531   1.358   1_554  A
C326        N327   1.358       .  A
C326        C387   1.463       .  S
N328        C333   1.355   1_556  A
N328        C950   1.354   1_556  A
N328        H360   1.036       .  S
N329        C336   1.351       .  A
N330        C335   1.354   1_556  A
N330        C952   1.354   1_556  A
N330        H361   1.034       .  S
N331        C338   1.352       .  A
C332        N946   1.353   1_454  A
C332        C958   1.387   1_455  A
C332        C348   1.415   1_554  A
C333        C349   1.418   1_554  A
C333        C341   1.387       .  A
C334        N948   1.354   1_454  A
C334        C960   1.387   1_455  A
C334        C351   1.416   1_554  A
C335        C350   1.418   1_554  A
C335        C343   1.387       .  A
C336        C348   1.413       .  A
C336        C344   1.387       .  A
C337        C351   1.413       .  A
C337        C345   1.387       .  A
C338        C346   1.387       .  A
C338        C349   1.414       .  A
C339        C347   1.387       .  A
C339        C350   1.415       .  A
C340        C950   1.387       .  A
C340        C341   1.377       .  A
C340        H970   1.082       .  S
C341        H353   1.082       .  S
C342        C952   1.387       .  A
C342        C343   1.377       .  A
C342        H972   1.082       .  S
C343        H355   1.082       .  S
C344        H356   1.082       .  S
C345        H357   1.082       .  S
C346        H358   1.082       .  S
C347        H359   1.082       .  S
C351        C362   1.478       .  S
H352        C958   1.082   1_455  S
H354        C960   1.082   1_455  S
C362        N363   1.360   1_556  A
C362        N573   1.358       .  A
N363        C364   1.359       .  A
C364        N571   1.356   1_554  A
C364        C412   1.461       .  S
N365        C467   1.357       .  A
N365        C366   1.357       .  A
C366        N367   1.358       .  A
C366        C411   1.463       .  S
N367        C465   1.359       .  A
N368        N369   1.321       .  A
N368        N374   1.316       .  A
N368       Mn397   2.204       .  S
N369        C376   1.351       .  A
N370        N372   1.317       .  A
N370        N371   1.321       .  A
N370       Mn386   2.209       .  S
N371        C377   1.352       .  A
N372        N373   1.321       .  A
N372       Mn397   2.204       .  S
N373        C377   1.351       .  A
N374        N375   1.321       .  A
N374       Mn386   2.204       .  S
N375        C376   1.351       .  A
N378        N384   1.316       .  A
N378        N379   1.321       .  A
N378       Mn408   2.208       .  S
N379        C387   1.352       .  A
N380        N381   1.321       .  A
N380        N382   1.317       .  A
N380       Mn386   2.209       .  S
N381        C388   1.352       .  A
N382        N383   1.322       .  A
N382       Mn408   2.209       .  S
N383        C388   1.352       .  A
N384        N385   1.322       .  A
N384       Mn386   2.205       .  S
N385        C387   1.352       .  A
Mn386      Cl410   2.550       .  S
N389        N390   1.321       .  A
N389        N395   1.316       .  A
N389       Mn397   2.206       .  S
N390        C398   1.352       .  A
N391        N393   1.316       .  A
N391        N392   1.321       .  A
N391       Mn409   2.205       .  S
N392        C399   1.351       .  A
N393        N394   1.321       .  A
N393       Mn397   2.204       .  S
N394        C399   1.351       .  A
N395        N396   1.321       .  A
N395       Mn409   2.205       .  S
N396        C398   1.351       .  A
Mn397      Cl410   2.553       .  S
N400        N401   1.321       .  A
N400        N406   1.316       .  A
N400       Mn408   2.208       .  S
N401        C411   1.351       .  A
N402        N403   1.321       .  A
N402        N404   1.317       .  A
N402       Mn409   2.205       .  S
N403        C412   1.351       .  A
N404        N405   1.321       .  A
N404       Mn408   2.206       .  S
N405        C412   1.351       .  A
N406        N407   1.322       .  A
N406       Mn409   2.206       .  S
N407        C411   1.352       .  A
Mn408      Cl410   2.551       .  S
Mn409      Cl410   2.552       .  S
C413        N418   1.360       .  A
C413        C452   1.480       .  S
N414        C516   1.358       .  A
N414        C415   1.357       .  A
C415        N416   1.356       .  A
C415        C479   1.459       .  S
N416        C520   1.356       .  A
C417        N418   1.358       .  A
C417        C480   1.462       .  S
C419        N424   1.359       .  A
C419        C451   1.476       .  S
N420        C522   1.360       .  A
N420        C421   1.358       .  A
C421        N422   1.356       .  A
C421        C502   1.461       .  S
N422        C526   1.356       .  A
C423        N424   1.358       .  A
C423        C501   1.461       .  S
C425        N430   1.358       .  A
C425        C453   1.479       .  S
N426        C528   1.358       .  A
N426        C427   1.357       .  A
C427        N428   1.355       .  A
C427        C491   1.456       .  S
N428        C532   1.355       .  A
C429        N430   1.356       .  A
C429        C490   1.456       .  S
N431        C436   1.354       .  A
N431       C1053   1.354       .  A
N431        H463   1.036       .  S
N432        C439   1.352       .  A
N433        C438   1.353       .  A
N433       C1055   1.353       .  A
N433        H464   1.035       .  S
N434        C441   1.352       .  A
C435       N1049   1.353   1_455  A
C435       C1061   1.387   1_455  A
C435        C451   1.416       .  A
C436        C452   1.417       .  A
C436        C444   1.387       .  A
C437       N1051   1.353   1_455  A
C437       C1063   1.388   1_455  A
C437        C454   1.418       .  A
C438        C453   1.417       .  A
C438        C446   1.388       .  A
C439        C451   1.414       .  A
C439        C447   1.387       .  A
C440        C454   1.416       .  A
C440        C448   1.387       .  A
C441        C449   1.386       .  A
C441        C452   1.414       .  A
C442        C450   1.387       .  A
C442        C453   1.415       .  A
C443       C1053   1.387       .  A
C443        C444   1.377       .  A
C443       H1073   1.082       .  S
C444        H456   1.082       .  S
C445       C1055   1.388       .  A
C445        C446   1.378       .  A
C445       H1075   1.082       .  S
C446        H458   1.082       .  S
C447        H459   1.082       .  S
C448        H460   1.082       .  S
C449        H461   1.082       .  S
C450        H462   1.082       .  S
C454        C465   1.478       .  S
H455       C1061   1.082   1_455  S
H457       C1063   1.082   1_455  S
C465        N466   1.359       .  A
N466        C467   1.357       .  A
C467        C515   1.460       .  S
N468        C570   1.356       .  A
N468        C469   1.356       .  A
C469        N470   1.357       .  A
C469        C514   1.459       .  S
N470        C568   1.359       .  A
N471        N472   1.320       .  A
N471        N477   1.316       .  A
N471       Mn500   2.202       .  S
N472        C479   1.351       .  A
N473        N475   1.316       .  A
N473        N474   1.321       .  A
N473       Mn489   2.205       .  S
N474        C480   1.352       .  A
N475        N476   1.321       .  A
N475       Mn500   2.206       .  S
N476        C480   1.351       .  A
N477        N478   1.321       .  A
N477       Mn489   2.199       .  S
N478        C479   1.351       .  A
N481        N487   1.316       .  A
N481        N482   1.320       .  A
N481       Mn511   2.199       .  S
N482        C490   1.350       .  A
N483        N484   1.320       .  A
N483        N485   1.316       .  A
N483       Mn489   2.200       .  S
N484        C491   1.350       .  A
N485        N486   1.320       .  A
N485       Mn511   2.201       .  S
N486        C491   1.351       .  A
N487        N488   1.320       .  A
N487       Mn489   2.198       .  S
N488        C490   1.350       .  A
Mn489      Cl513   2.550       .  S
N492        N493   1.321       .  A
N492        N498   1.316       .  A
N492       Mn500   2.205       .  S
N493        C501   1.352       .  A
N494        N496   1.316       .  A
N494        N495   1.321       .  A
N494       Mn512   2.205       .  S
N495        C502   1.351       .  A
N496        N497   1.321       .  A
N496       Mn500   2.205       .  S
N497        C502   1.351       .  A
N498        N499   1.321       .  A
N498       Mn512   2.201       .  S
N499        C501   1.351       .  A
Mn500      Cl513   2.548       .  S
N503        N504   1.321       .  A
N503        N509   1.316       .  A
N503       Mn511   2.200       .  S
N504        C514   1.351       .  A
N505        N506   1.321       .  A
N505        N507   1.316       .  A
N505       Mn512   2.202       .  S
N506        C515   1.351       .  A
N507        N508   1.321       .  A
N507       Mn511   2.206       .  S
N508        C515   1.352       .  A
N509        N510   1.321       .  A
N509       Mn512   2.203       .  S
N510        C514   1.351       .  A
Mn511      Cl513   2.548       .  S
Mn512      Cl513   2.550       .  S
C516        N521   1.359       .  A
C516        C555   1.476       .  S
N517        C518   1.357       .  A
C518        N519   1.356       .  A
C518        C582   1.459       .  S
C520        N521   1.357       .  A
C520        C583   1.461       .  S
C522        N527   1.359       .  A
C522        C554   1.478       .  S
N523        C524   1.357       .  A
C524        N525   1.356       .  A
C524        C605   1.458       .  S
C526        N527   1.357       .  A
C526        C604   1.459       .  S
C528        N533   1.358       .  A
C528        C556   1.476       .  S
N529        C530   1.359       .  A
C530        N531   1.357       .  A
C530        C594   1.465       .  S
C532        N533   1.356       .  A
C532        C593   1.455       .  S
N534        C539   1.353       .  A
N534       C1156   1.353       .  A
N534        H566   1.032       .  S
N535        C542   1.352       .  A
N536        C541   1.353       .  A
N536       C1158   1.353       .  A
N536        H567   1.031       .  S
N537        C544   1.352       .  A
C538       N1152   1.354   1_455  A
C538       C1164   1.387   1_455  A
C538        C554   1.417       .  A
C539        C555   1.417       .  A
C539        C547   1.388       .  A
C540       N1154   1.353   1_455  A
C540       C1166   1.387   1_455  A
C540        C557   1.416       .  A
C541        C556   1.419       .  A
C541        C549   1.388       .  A
C542        C554   1.414       .  A
C542        C550   1.387       .  A
C543        C557   1.414       .  A
C543        C551   1.386       .  A
C544        C552   1.387       .  A
C544        C555   1.415       .  A
C545        C553   1.388       .  A
C545        C556   1.417       .  A
C546       C1156   1.388       .  A
C546        C547   1.377       .  A
C546       H1176   1.082       .  S
C547        H559   1.082       .  S
C548       C1158   1.388       .  A
C548        C549   1.375       .  A
C548       H1178   1.082       .  S
C549        H561   1.082       .  S
C550        H562   1.082       .  S
C551        H563   1.082       .  S
C552        H564   1.082       .  S
C553        H565   1.083       .  S
C557        C568   1.479       .  S
H558       C1164   1.082   1_455  S
H560       C1166   1.082   1_455  S
C568        N569   1.360       .  A
N569        C570   1.358       .  A
C570        C618   1.461       .  S
N571        C572   1.356       .  A
C572        N573   1.356       .  A
C572        C617   1.458       .  S
N574        N575   1.320       .  A
N574        N580   1.316       .  A
N574       Mn603   2.202       .  S
N575        C582   1.351       .  A
N576        N578   1.317       .  A
N576        N577   1.321       .  A
N576       Mn592   2.209       .  S
N577        C583   1.352       .  A
N578        N579   1.321       .  A
N578       Mn603   2.202       .  S
N579        C583   1.351       .  A
N580        N581   1.320       .  A
N580       Mn592   2.198       .  S
N581        C582   1.351       .  A
N584        N590   1.316       .  A
N584        N585   1.320       .  A
N584       Mn614   2.200       .  S
N585        C593   1.351       .  A
N586        N587   1.321       .  A
N586        N588   1.317       .  A
N586       Mn592   2.208       .  S
N587        C594   1.352       .  A
N588        N589   1.322       .  A
N588       Mn614   2.210       .  S
N589        C594   1.352       .  A
N590        N591   1.320       .  A
N590       Mn592   2.195       .  S
N591        C593   1.350       .  A
Mn592      Cl616   2.549       .  S
N595        N596   1.321       .  A
N595        N601   1.316       .  A
N595       Mn603   2.204       .  S
N596        C604   1.351       .  A
N597        N599   1.316       .  A
N597        N598   1.320       .  A
N597       Mn615   2.197       .  S
N598        C605   1.350       .  A
N599        N600   1.320       .  A
N599       Mn603   2.204       .  S
N600        C605   1.351       .  A
N601        N602   1.320       .  A
N601       Mn615   2.201       .  S
N602        C604   1.351       .  A
Mn603      Cl616   2.550       .  S
N606        N607   1.320       .  A
N606        N612   1.316       .  A
N606       Mn614   2.196       .  S
N607        C617   1.350       .  A
N608        N609   1.321       .  A
N608        N610   1.316       .  A
N608       Mn615   2.202       .  S
N609        C618   1.351       .  A
N610        N611   1.321       .  A
N610       Mn614   2.209       .  S
N611        C618   1.352       .  A
N612        N613   1.320       .  A
N612       Mn615   2.203       .  S
N613        C617   1.351       .  A
Mn614      Cl616   2.549       .  S
Mn615      Cl616   2.549       .  S
C619        N826   1.359       .  A
C619        N624   1.360   1_556  A
C619        C658   1.478       .  S
N620        C722   1.359       .  A
N620        C621   1.357       .  A
C621        N622   1.356       .  A
C621        C685   1.458       .  S
N622        C726   1.356       .  A
C623        N828   1.357   1_554  A
C623        N624   1.358       .  A
C623        C686   1.463       .  S
C625        N832   1.359       .  A
C625        N630   1.359   1_556  A
C625        C657   1.477       .  S
N626        C728   1.359       .  A
N626        C627   1.357       .  A
C627        N628   1.357       .  A
C627        C708   1.460       .  S
N628        C732   1.357       .  A
C629        N834   1.356   1_554  A
C629        N630   1.358       .  A
C629        C707   1.460       .  S
C631        N838   1.359       .  A
C631        N636   1.359   1_556  A
C631        C659   1.478       .  S
N632        C734   1.360       .  A
N632        C633   1.359       .  A
C633        N634   1.356       .  A
C633        C697   1.463       .  S
N634        C738   1.356       .  A
C635        N840   1.357   1_554  A
C635        N636   1.357       .  A
C635        C696   1.461       .  S
N637        C642   1.354   1_556  A
N637        H669   1.034       .  S
N638        C645   1.352       .  A
N638        C955   1.352       .  A
N639        C644   1.354   1_556  A
N639        H670   1.033       .  S
N640        C647   1.352       .  A
N640        C957   1.351       .  A
C641        C657   1.415   1_554  A
C642        C658   1.416   1_554  A
C642        C650   1.387       .  A
C643        C660   1.417   1_554  A
C644        C659   1.418   1_554  A
C644        C652   1.387       .  A
C645        C657   1.414       .  A
C645        C653   1.387       .  A
C646        N947   1.351   1_545  A
C646        C660   1.414       .  A
C646        C654   1.387       .  A
C647        C655   1.386       .  A
C647        C658   1.414       .  A
C648        N949   1.351   1_545  A
C648        C656   1.387       .  A
C648        C659   1.414       .  A
C649        C650   1.376       .  A
C650        H662   1.082       .  S
C651        C652   1.376       .  A
C652        H664   1.082       .  S
C653        C963   1.374       .  A
C653        H665   1.082       .  S
C654        C962   1.374   1_545  A
C654        H666   1.082       .  S
C655        C965   1.373       .  A
C655        H667   1.082       .  S
C656        C964   1.374   1_545  A
C656        H668   1.082       .  S
C660        C671   1.479       .  S
C671        N672   1.360   1_556  A
C671        N882   1.359       .  A
N672        C673   1.359       .  A
C673        N880   1.357   1_554  A
C673        C721   1.462       .  S
N674        C776   1.356       .  A
N674        C675   1.356       .  A
C675        N676   1.358       .  A
C675        C720   1.461       .  S
N676        C774   1.360       .  A
N677        N678   1.321       .  A
N677        N683   1.316       .  A
N677       Mn706   2.201       .  S
N678        C685   1.351       .  A
N679        N681   1.317       .  A
N679        N680   1.322       .  A
N679       Mn695   2.210       .  S
N680        C686   1.352       .  A
N681        N682   1.321       .  A
N681       Mn706   2.205       .  S
N682        C686   1.351       .  A
N683        N684   1.320       .  A
N683       Mn695   2.202       .  S
N684        C685   1.351       .  A
N687        N693   1.316       .  A
N687        N688   1.320       .  A
N687       Mn717   2.203       .  S
N688        C696   1.351       .  A
N689        N690   1.321       .  A
N689        N691   1.316       .  A
N689       Mn695   2.207       .  S
N690        C697   1.352       .  A
N691        N692   1.322       .  A
N691       Mn717   2.207       .  S
N692        C697   1.352       .  A
N693        N694   1.321       .  A
N693       Mn695   2.204       .  S
N694        C696   1.352       .  A
Mn695      Cl719   2.550       .  S
N698        N699   1.321       .  A
N698        N704   1.317       .  A
N698       Mn706   2.203       .  S
N699        C707   1.351       .  A
N700        N702   1.316       .  A
N700        N701   1.321       .  A
N700       Mn718   2.202       .  S
N701        C708   1.351       .  A
N702        N703   1.321       .  A
N702       Mn706   2.206       .  S
N703        C708   1.351       .  A
N704        N705   1.320       .  A
N704       Mn718   2.206       .  S
N705        C707   1.351       .  A
Mn706      Cl719   2.553       .  S
N709        N710   1.321       .  A
N709        N715   1.316       .  A
N709       Mn717   2.201       .  S
N710        C720   1.351       .  A
N711        N712   1.321       .  A
N711        N713   1.316       .  A
N711       Mn718   2.203       .  S
N712        C721   1.351       .  A
N713        N714   1.321       .  A
N713       Mn717   2.208       .  S
N714        C721   1.352       .  A
N715        N716   1.321       .  A
N715       Mn718   2.209       .  S
N716        C720   1.352       .  A
Mn717      Cl719   2.551       .  S
Mn718      Cl719   2.550       .  S
C722        N727   1.359       .  A
C722        C761   1.477       .  S
N723        C825   1.360       .  A
N723        C724   1.359       .  A
C724        N725   1.357       .  A
C724        C788   1.461       .  S
N725        C829   1.356       .  A
C726        N727   1.357       .  A
C726        C789   1.458       .  S
C728        N733   1.360       .  A
C728        C760   1.478       .  S
N729        C831   1.359       .  A
N729        C730   1.357       .  A
C730        N731   1.357       .  A
C730        C811   1.460       .  S
N731        C835   1.357       .  A
C732        N733   1.359       .  A
C732        C810   1.465       .  S
C734        N739   1.358       .  A
C734        C762   1.478       .  S
N735        C837   1.359       .  A
N735        C736   1.358       .  A
C736        N737   1.355       .  A
C736        C800   1.457       .  S
N737        C841   1.355       .  A
C738        N739   1.357       .  A
C738        C799   1.458       .  S
N740        C745   1.354       .  A
N740        H772   1.033       .  S
N741        C748   1.352       .  A
N741       C1058   1.352       .  A
N742        C747   1.353       .  A
N742        H773   1.035       .  S
N743        C750   1.351       .  A
N743       C1060   1.352       .  A
C744        C760   1.415       .  A
C745        C761   1.418       .  A
C745        C753   1.388       .  A
C746        C763   1.417       .  A
C747        C762   1.417       .  A
C747        C755   1.388       .  A
C748        C760   1.413       .  A
C748        C756   1.386       .  A
C749       N1050   1.352   1_545  A
C749        C763   1.415       .  A
C749        C757   1.387       .  A
C750        C758   1.387       .  A
C750        C761   1.415       .  A
C751       N1052   1.352   1_545  A
C751        C759   1.387       .  A
C751        C762   1.414       .  A
C752        C753   1.376       .  A
C753        H765   1.082       .  S
C754        C755   1.377       .  A
C755        H767   1.082       .  S
C756       C1066   1.373       .  A
C756        H768   1.082       .  S
C757       C1065   1.373   1_545  A
C757        H769   1.082       .  S
C758       C1068   1.373       .  A
C758        H770   1.082       .  S
C759       C1067   1.373   1_545  A
C759        H771   1.082       .  S
C763        C774   1.478       .  S
C774        N775   1.359       .  A
N775        C776   1.357       .  A
C776        C824   1.458       .  S
N777        C879   1.356       .  A
N777        C778   1.356       .  A
C778        N779   1.358       .  A
C778        C823   1.460       .  S
N779        C877   1.359       .  A
N780        N781   1.321       .  A
N780        N786   1.316       .  A
N780       Mn809   2.209       .  S
N781        C788   1.352       .  A
N782        N784   1.316       .  A
N782        N783   1.320       .  A
N782       Mn798   2.200       .  S
N783        C789   1.351       .  A
N784        N785   1.320       .  A
N784       Mn809   2.202       .  S
N785        C789   1.351       .  A
N786        N787   1.321       .  A
N786       Mn798   2.200       .  S
N787        C788   1.351       .  A
N790        N796   1.316       .  A
N790        N791   1.320       .  A
N790       Mn820   2.202       .  S
N791        C799   1.351       .  A
N792        N793   1.320       .  A
N792        N794   1.316       .  A
N792       Mn798   2.201       .  S
N793        C800   1.351       .  A
N794        N795   1.321       .  A
N794       Mn820   2.200       .  S
N795        C800   1.351       .  A
N796        N797   1.320       .  A
N796       Mn798   2.199       .  S
N797        C799   1.351       .  A
Mn798      Cl822   2.550       .  S
N801        N802   1.322       .  A
N801        N807   1.317       .  A
N801       Mn809   2.212       .  S
N802        C810   1.352       .  A
N803        N805   1.316       .  A
N803        N804   1.321       .  A
N803       Mn821   2.204       .  S
N804        C811   1.351       .  A
N805        N806   1.321       .  A
N805       Mn809   2.204       .  S
N806        C811   1.351       .  A
N807        N808   1.322       .  A
N807       Mn821   2.207       .  S
N808        C810   1.352       .  A
Mn809      Cl822   2.549       .  S
N812        N813   1.321       .  A
N812        N818   1.316       .  A
N812       Mn820   2.203       .  S
N813        C823   1.351       .  A
N814        N815   1.320       .  A
N814        N816   1.316       .  A
N814       Mn821   2.201       .  S
N815        C824   1.351       .  A
N816        N817   1.320       .  A
N816       Mn820   2.200       .  S
N817        C824   1.351       .  A
N818        N819   1.321       .  A
N818       Mn821   2.206       .  S
N819        C823   1.351       .  A
Mn820      Cl822   2.548       .  S
Mn821      Cl822   2.551       .  S
C825        N830   1.358       .  A
C825        C864   1.477       .  S
N826        C827   1.358       .  A
C827        N828   1.357       .  A
C827        C891   1.460       .  S
C829        N830   1.356       .  A
C829        C892   1.459       .  S
C831        N836   1.359       .  A
C831        C863   1.477       .  S
N832        C833   1.357       .  A
C833        N834   1.356       .  A
C833        C914   1.458       .  S
C835        N836   1.358       .  A
C835        C913   1.462       .  S
C837        N842   1.359       .  A
C837        C865   1.478       .  S
N838        C839   1.357       .  A
C839        N840   1.357       .  A
C839        C903   1.462       .  S
C841        N842   1.358       .  A
C841        C902   1.459       .  S
N843        C848   1.353       .  A
N843        H875   1.037       .  S
N844        C851   1.352       .  A
N844       C1161   1.351       .  A
N845        C850   1.354       .  A
N845        H876   1.034       .  S
N846        C853   1.352       .  A
N846       C1163   1.352       .  A
C847        C863   1.419       .  A
C848        C864   1.415       .  A
C848        C856   1.387       .  A
C849        C866   1.415       .  A
C850        C865   1.416       .  A
C850        C858   1.387       .  A
C851        C863   1.417       .  A
C851        C859   1.387       .  A
C852       N1153   1.352   1_545  A
C852        C866   1.414       .  A
C852        C860   1.386       .  A
C853        C861   1.387       .  A
C853        C864   1.413       .  A
C854       N1155   1.352   1_545  A
C854        C862   1.387       .  A
C854        C865   1.414       .  A
C855        C856   1.376       .  A
C856        H868   1.082       .  S
C857        C858   1.376       .  A
C858        H870   1.082       .  S
C859       C1169   1.373       .  A
C859        H871   1.083       .  S
C860       C1168   1.373   1_545  A
C860        H872   1.082       .  S
C861       C1171   1.373       .  A
C861        H873   1.082       .  S
C862       C1170   1.373   1_545  A
C862        H874   1.082       .  S
C866        C877   1.479       .  S
C877        N878   1.359       .  A
N878        C879   1.358       .  A
C879        C927   1.460       .  S
N880        C881   1.357       .  A
C881        N882   1.357       .  A
C881        C926   1.461       .  S
N883        N884   1.321       .  A
N883        N889   1.316       .  A
N883       Mn912   2.208       .  S
N884        C891   1.352       .  A
N885        N887   1.316       .  A
N885        N886   1.321       .  A
N885       Mn901   2.204       .  S
N886        C892   1.351       .  A
N887        N888   1.321       .  A
N887       Mn912   2.202       .  S
N888        C892   1.351       .  A
N889        N890   1.321       .  A
N889       Mn901   2.201       .  S
N890        C891   1.351       .  A
N893        N899   1.316       .  A
N893        N894   1.321       .  A
N893       Mn923   2.205       .  S
N894        C902   1.351       .  A
N895        N896   1.321       .  A
N895        N897   1.316       .  A
N895       Mn901   2.206       .  S
N896        C903   1.351       .  A
N897        N898   1.322       .  A
N897       Mn923   2.205       .  S
N898        C903   1.352       .  A
N899        N900   1.321       .  A
N899       Mn901   2.199       .  S
N900        C902   1.351       .  A
Mn901      Cl925   2.549       .  S
N904        N905   1.322       .  A
N904        N910   1.317       .  A
N904       Mn912   2.209       .  S
N905        C913   1.352       .  A
N906        N908   1.316       .  A
N906        N907   1.320       .  A
N906       Mn924   2.197       .  S
N907        C914   1.350       .  A
N908        N909   1.320       .  A
N908       Mn912   2.205       .  S
N909        C914   1.351       .  A
N910        N911   1.321       .  A
N910       Mn924   2.204       .  S
N911        C913   1.351       .  A
Mn912      Cl925   2.550       .  S
N915        N916   1.321       .  A
N915        N921   1.316       .  A
N915       Mn923   2.201       .  S
N916        C926   1.351       .  A
N917        N918   1.321       .  A
N917        N919   1.316       .  A
N917       Mn924   2.201       .  S
N918        C927   1.351       .  A
N919        N920   1.320       .  A
N919       Mn923   2.203       .  S
N920        C927   1.351       .  A
N921        N922   1.321       .  A
N921       Mn924   2.208       .  S
N922        C926   1.352       .  A
Mn923      Cl925   2.550       .  S
Mn924      Cl925   2.550       .  S
C928       N1135   1.359       .  A
C928        N933   1.359   1_556  A
C928        C967   1.476       .  S
N929       C1031   1.359       .  A
N929        C930   1.357       .  A
C930        N931   1.357       .  A
C930        C994   1.461       .  S
N931       C1035   1.357       .  A
C932       N1137   1.356   1_554  A
C932        N933   1.357       .  A
C932        C995   1.460       .  S
C934       N1141   1.358       .  A
C934        N939   1.360   1_556  A
C934        C966   1.479       .  S
N935       C1037   1.359       .  A
N935        C936   1.357       .  A
C936        N937   1.356       .  A
C936       C1017   1.459       .  S
N937       C1041   1.356       .  A
C938       N1143   1.356   1_554  A
C938        N939   1.359       .  A
C938       C1016   1.463       .  S
C940       N1147   1.359       .  A
C940        N945   1.359   1_556  A
C940        C968   1.478       .  S
N941       C1043   1.360       .  A
N941        C942   1.358       .  A
C942        N943   1.357       .  A
C942       C1006   1.463       .  S
N943       C1047   1.357       .  A
C944       N1149   1.356   1_554  A
C944        N945   1.358       .  A
C944       C1005   1.460       .  S
N946        C951   1.353   1_556  A
N946        H978   1.034       .  S
N947        C954   1.351       .  A
N948        C953   1.354   1_556  A
N948        H979   1.036       .  S
N949        C956   1.351       .  A
C950        C966   1.417   1_554  A
C951        C967   1.416   1_554  A
C951        C959   1.387       .  A
C952        C969   1.418   1_554  A
C953        C968   1.416   1_554  A
C953        C961   1.387       .  A
C954        C966   1.414       .  A
C954        C962   1.387       .  A
C955        C969   1.415       .  A
C955        C963   1.387       .  A
C956        C964   1.387       .  A
C956        C967   1.413       .  A
C957        C965   1.387       .  A
C957        C968   1.413       .  A
C958        C959   1.376       .  A
C959        H971   1.082       .  S
C960        C961   1.376       .  A
C961        H973   1.082       .  S
C962        H974   1.082       .  S
C963        H975   1.082       .  S
C964        H976   1.082       .  S
C965        H977   1.082       .  S
C969        C980   1.481       .  S
C980        N981   1.360   1_556  A
C980       N1191   1.360       .  A
N981        C982   1.359       .  A
C982       N1189   1.358   1_554  A
C982       C1030   1.465       .  S
N983       C1085   1.356       .  A
N983        C984   1.356       .  A
C984        N985   1.359       .  A
C984       C1029   1.464       .  S
N985       C1083   1.360       .  A
N986        N987   1.321       .  A
N986        N992   1.316       .  A
N986      Mn1015   2.205       .  S
N987        C994   1.351       .  A
N988        N990   1.316       .  A
N988        N989   1.321       .  A
N988      Mn1004   2.207       .  S
N989        C995   1.351       .  A
N990        N991   1.321       .  A
N990      Mn1015   2.203       .  S
N991        C995   1.351       .  A
N992        N993   1.321       .  A
N992      Mn1004   2.207       .  S
N993        C994   1.352       .  A
N996       N1002   1.317       .  A
N996        N997   1.321       .  A
N996      Mn1026   2.204       .  S
N997       C1005   1.351       .  A
N998        N999   1.321       .  A
N998       N1000   1.317       .  A
N998      Mn1004   2.205       .  S
N999       C1006   1.351       .  A
N1000      N1001   1.322       .  A
N1000     Mn1026   2.210       .  S
N1001      C1006   1.352       .  A
N1002      N1003   1.321       .  A
N1002     Mn1004   2.204       .  S
N1003      C1005   1.351       .  A
Mn1004    Cl1028   2.551       .  S
N1007      N1008   1.322       .  A
N1007      N1013   1.317       .  A
N1007     Mn1015   2.207       .  S
N1008      C1016   1.352       .  A
N1009      N1011   1.316       .  A
N1009      N1010   1.320       .  A
N1009     Mn1027   2.201       .  S
N1010      C1017   1.350       .  A
N1011      N1012   1.321       .  A
N1011     Mn1015   2.204       .  S
N1012      C1017   1.351       .  A
N1013      N1014   1.321       .  A
N1013     Mn1027   2.208       .  S
N1014      C1016   1.351       .  A
Mn1015    Cl1028   2.553       .  S
N1018      N1019   1.321       .  A
N1018      N1024   1.317       .  A
N1018     Mn1026   2.206       .  S
N1019      C1029   1.351       .  A
N1020      N1021   1.322       .  A
N1020      N1022   1.316       .  A
N1020     Mn1027   2.206       .  S
N1021      C1030   1.352       .  A
N1022      N1023   1.322       .  A
N1022     Mn1026   2.210       .  S
N1023      C1030   1.352       .  A
N1024      N1025   1.322       .  A
N1024     Mn1027   2.211       .  S
N1025      C1029   1.352       .  A
Mn1026    Cl1028   2.551       .  S
Mn1027    Cl1028   2.550       .  S
C1031      N1036   1.358       .  A
C1031      C1070   1.477       .  S
N1032      C1134   1.360       .  A
N1032      C1033   1.358       .  A
C1033      N1034   1.356       .  A
C1033      C1097   1.461       .  S
N1034      C1138   1.356       .  A
C1035      N1036   1.357       .  A
C1035      C1098   1.459       .  S
C1037      N1042   1.360       .  A
C1037      C1069   1.479       .  S
N1038      C1140   1.358       .  A
N1038      C1039   1.357       .  A
C1039      N1040   1.356       .  A
C1039      C1120   1.459       .  S
N1040      C1144   1.356       .  A
C1041      N1042   1.359       .  A
C1041      C1119   1.463       .  S
C1043      N1048   1.358       .  A
C1043      C1071   1.478       .  S
N1044      C1146   1.359       .  A
N1044      C1045   1.358       .  A
C1045      N1046   1.356       .  A
C1045      C1109   1.459       .  S
N1046      C1150   1.356       .  A
C1047      N1048   1.357       .  A
C1047      C1108   1.460       .  S
N1049      C1054   1.353       .  A
N1049      H1081   1.034       .  S
N1050      C1057   1.352       .  A
N1051      C1056   1.353       .  A
N1051      H1082   1.030       .  S
N1052      C1059   1.352       .  A
C1053      C1069   1.416       .  A
C1054      C1070   1.416       .  A
C1054      C1062   1.388       .  A
C1055      C1072   1.417       .  A
C1056      C1071   1.418       .  A
C1056      C1064   1.388       .  A
C1057      C1069   1.414       .  A
C1057      C1065   1.386       .  A
C1058      C1072   1.415       .  A
C1058      C1066   1.387       .  A
C1059      C1067   1.387       .  A
C1059      C1070   1.414       .  A
C1060      C1068   1.387       .  A
C1060      C1071   1.416       .  A
C1061      C1062   1.376       .  A
C1062      H1074   1.082       .  S
C1063      C1064   1.375       .  A
C1064      H1076   1.082       .  S
C1065      H1077   1.082       .  S
C1066      H1078   1.082       .  S
C1067      H1079   1.082       .  S
C1068      H1080   1.082       .  S
C1072      C1083   1.479       .  S
C1083      N1084   1.358       .  A
N1084      C1085   1.357       .  A
C1085      C1133   1.456       .  S
N1086      C1188   1.355       .  A
N1086      C1087   1.355       .  A
C1087      N1088   1.356       .  A
C1087      C1132   1.456       .  S
N1088      C1186   1.358       .  A
N1089      N1090   1.321       .  A
N1089      N1095   1.316       .  A
N1089     Mn1118   2.206       .  S
N1090      C1097   1.352       .  A
N1091      N1093   1.316       .  A
N1091      N1092   1.321       .  A
N1091     Mn1107   2.200       .  S
N1092      C1098   1.351       .  A
N1093      N1094   1.320       .  A
N1093     Mn1118   2.201       .  S
N1094      C1098   1.351       .  A
N1095      N1096   1.321       .  A
N1095     Mn1107   2.205       .  S
N1096      C1097   1.351       .  A
N1099      N1105   1.316       .  A
N1099      N1100   1.321       .  A
N1099     Mn1129   2.205       .  S
N1100      C1108   1.351       .  A
N1101      N1102   1.320       .  A
N1101      N1103   1.316       .  A
N1101     Mn1107   2.200       .  S
N1102      C1109   1.350       .  A
N1103      N1104   1.321       .  A
N1103     Mn1129   2.202       .  S
N1104      C1109   1.351       .  A
N1105      N1106   1.321       .  A
N1105     Mn1107   2.201       .  S
N1106      C1108   1.351       .  A
Mn1107    Cl1131   2.549       .  S
N1110      N1111   1.322       .  A
N1110      N1116   1.317       .  A
N1110     Mn1118   2.210       .  S
N1111      C1119   1.352       .  A
N1112      N1114   1.316       .  A
N1112      N1113   1.321       .  A
N1112     Mn1130   2.199       .  S
N1113      C1120   1.351       .  A
N1114      N1115   1.320       .  A
N1114     Mn1118   2.202       .  S
N1115      C1120   1.351       .  A
N1116      N1117   1.321       .  A
N1116     Mn1130   2.204       .  S
N1117      C1119   1.351       .  A
Mn1118    Cl1131   2.548       .  S
N1121      N1122   1.320       .  A
N1121      N1127   1.316       .  A
N1121     Mn1129   2.199       .  S
N1122      C1132   1.350       .  A
N1123      N1124   1.320       .  A
N1123      N1125   1.316       .  A
N1123     Mn1130   2.198       .  S
N1124      C1133   1.350       .  A
N1125      N1126   1.320       .  A
N1125     Mn1129   2.199       .  S
N1126      C1133   1.350       .  A
N1127      N1128   1.320       .  A
N1127     Mn1130   2.201       .  S
N1128      C1132   1.351       .  A
Mn1129    Cl1131   2.548       .  S
Mn1130    Cl1131   2.550       .  S
C1134      N1139   1.358       .  A
C1134      C1173   1.477       .  S
N1135      C1136   1.357       .  A
C1136      N1137   1.356       .  A
C1136      C1200   1.458       .  S
C1138      N1139   1.356       .  A
C1138      C1201   1.458       .  S
C1140      N1145   1.360       .  A
C1140      C1172   1.478       .  S
N1141      C1142   1.356       .  A
C1142      N1143   1.356       .  A
C1142      C1223   1.458       .  S
C1144      N1145   1.358       .  A
C1144      C1222   1.462       .  S
C1146      N1151   1.359       .  A
C1146      C1174   1.478       .  S
N1147      C1148   1.357       .  A
C1148      N1149   1.356       .  A
C1148      C1212   1.460       .  S
C1150      N1151   1.358       .  A
C1150      C1211   1.460       .  S
N1152      C1157   1.354       .  A
N1152      H1184   1.035       .  S
N1153      C1160   1.352       .  A
N1154      C1159   1.353       .  A
N1154      H1185   1.036       .  S
N1155      C1162   1.351       .  A
C1156      C1172   1.417       .  A
C1157      C1173   1.416       .  A
C1157      C1165   1.387       .  A
C1158      C1175   1.419       .  A
C1159      C1174   1.415       .  A
C1159      C1167   1.387       .  A
C1160      C1172   1.416       .  A
C1160      C1168   1.387       .  A
C1161      C1175   1.417       .  A
C1161      C1169   1.387       .  A
C1162      C1170   1.387       .  A
C1162      C1173   1.414       .  A
C1163      C1171   1.386       .  A
C1163      C1174   1.413       .  A
C1164      C1165   1.376       .  A
C1165      H1177   1.082       .  S
C1166      C1167   1.376       .  A
C1167      H1179   1.082       .  S
C1168      H1180   1.082       .  S
C1169      H1181   1.083       .  S
C1170      H1182   1.082       .  S
C1171      H1183   1.082       .  S
C1175      C1186   1.476       .  S
C1186      N1187   1.358       .  A
N1187      C1188   1.357       .  A
C1188      C1236   1.456       .  S
N1189      C1190   1.357       .  A
C1190      N1191   1.358       .  A
C1190      C1235   1.464       .  S
N1192      N1193   1.321       .  A
N1192      N1198   1.316       .  A
N1192     Mn1221   2.205       .  S
N1193      C1200   1.351       .  A
N1194      N1196   1.316       .  A
N1194      N1195   1.321       .  A
N1194     Mn1210   2.202       .  S
N1195      C1201   1.351       .  A
N1196      N1197   1.320       .  A
N1196     Mn1221   2.201       .  S
N1197      C1201   1.350       .  A
N1198      N1199   1.320       .  A
N1198     Mn1210   2.198       .  S
N1199      C1200   1.350       .  A
N1202      N1208   1.316       .  A
N1202      N1203   1.321       .  A
N1202     Mn1232   2.208       .  S
N1203      C1211   1.352       .  A
N1204      N1205   1.320       .  A
N1204      N1206   1.316       .  A
N1204     Mn1210   2.204       .  S
N1205      C1212   1.351       .  A
N1206      N1207   1.321       .  A
N1206     Mn1232   2.200       .  S
N1207      C1212   1.351       .  A
N1208      N1209   1.321       .  A
N1208     Mn1210   2.200       .  S
N1209      C1211   1.351       .  A
Mn1210    Cl1234   2.550       .  S
N1213      N1214   1.322       .  A
N1213      N1219   1.317       .  A
N1213     Mn1221   2.206       .  S
N1214      C1222   1.352       .  A
N1215      N1217   1.316       .  A
N1215      N1216   1.320       .  A
N1215     Mn1233   2.198       .  S
N1216      C1223   1.351       .  A
N1217      N1218   1.320       .  A
N1217     Mn1221   2.202       .  S
N1218      C1223   1.351       .  A
N1219      N1220   1.321       .  A
N1219     Mn1233   2.208       .  S
N1220      C1222   1.351       .  A
Mn1221    Cl1234   2.551       .  S
N1224      N1225   1.321       .  A
N1224      N1230   1.317       .  A
N1224     Mn1232   2.207       .  S
N1225      C1235   1.351       .  A
N1226      N1227   1.320       .  A
N1226      N1228   1.316       .  A
N1226     Mn1233   2.198       .  S
N1227      C1236   1.350       .  A
N1228      N1229   1.320       .  A
N1228     Mn1232   2.201       .  S
N1229      C1236   1.351       .  A
N1230      N1231   1.322       .  A
N1230     Mn1233   2.209       .  S
N1231      C1235   1.352       .  A
Mn1232    Cl1234   2.550       .  S
Mn1233    Cl1234   2.549       .  S
