geometry optimzed in LAMMPS
_audit_creation_date              2020-11-30 
_audit_creation_method            'lammps2cif' 
_symmetry_space_group_name_H-M    'P1' 
_symmetry_Int_Tables_number       1 
_symmetry_cell_setting            triclinic 
loop_ 
_symmetry_equiv_pos_as_xyz 
  x,y,z 
_cell_length_a                    37.85923837 
_cell_length_b                    40.45621840007671 
_cell_length_c                    28.96230843210954 
_cell_angle_alpha                 90.79701803670872 
_cell_angle_beta                  90.60328591646666 
_cell_angle_gamma                 89.75093457730715 
loop_ 
_atom_site_label 
_atom_site_type_symbol 
_atom_site_fract_x 
_atom_site_fract_y 
_atom_site_fract_z 
_atom_site_charge 
C1          C  0.37785732  0.36285181  0.00161261     0.03500
C2          C  0.36283615  0.34812580  0.04079568    -0.12700
C3          C  0.33741243  0.32302980  0.03505899     0.01000
C4          C  0.32757908  0.31355694  0.49447666    -0.11200
C5          C  0.34242339  0.32715962  0.45534610     0.03500
C6          C  0.36815914  0.35165945  0.46006935    -0.10600
H7          H  0.37024342  0.35668566  0.07513378     0.09100
H8          H  0.30792151  0.29427932  0.49016892     0.06600
H9          H  0.37963344  0.36231852  0.42958592     0.06500
C10         C  0.06029695  0.36942734  0.00691802     0.03500
C11         C  0.07451067  0.36015560  0.45531825    -0.12700
C12         C  0.10338137  0.33838849  0.45418855     0.01000
C13         C  0.11991823  0.32911501  0.49558647    -0.11200
C14         C  0.10487505  0.33486311  0.04333030     0.03500
C15         C  0.07779104  0.35840830  0.04687771    -0.10600
H16         H  0.06144524  0.36719045  0.42344491     0.09100
H17         H  0.14170879  0.31162517  0.49482659     0.06600
H18         H  0.07025740  0.36803110  0.08048521     0.06500
C19         C  0.36741106  0.03279858  0.98777558     0.03500
C20         C  0.36028920  0.04432545  0.45331494    -0.12700
C21         C  0.33501500  0.06929273  0.44747538     0.01000
C22         C  0.31815933  0.08301998  0.48622898    -0.11200
C23         C  0.32553355  0.07038072  0.02452490     0.03500
C24         C  0.35028359  0.04457745  0.02761011    -0.10600
H25         H  0.37347080  0.03374813  0.42350630     0.09100
H26         H  0.29850438  0.10232327  0.48175553     0.06600
H27         H  0.35717216  0.03451743  0.06101723     0.06500
N28         N  0.46848518  0.40180774  0.00794019    -0.36200
N29         N  0.01800569  0.45318447  0.00808044    -0.56800
N30         N  0.46083146  0.00112792  0.99226636    -0.36200
N31         N  0.41153675  0.45007680  0.00443433    -0.56800
C32         C  0.49827928  0.38399397  0.00100726     0.27300
C33         C  0.44066435  0.38109370  0.00324570     0.27400
C34         C  0.48864463  0.02189183  0.99697079     0.27300
C35         C  0.43101948  0.01949074  0.99574510     0.27300
C36         C  0.04052235  0.42761929  0.01428787     0.36000
C37         C  0.03765917  0.48094308  0.01062725     0.36000
C38         C  0.39157109  0.42265824  0.00858476     0.36000
C39         C  0.38907318  0.47610567  0.00448200     0.36000
C40         C  0.48932959  0.35113071  0.99323366    -0.21500
C41         C  0.45308760  0.34931427  0.99461447    -0.21500
C42         C  0.47624460  0.05401868  0.00253829    -0.21500
C43         C  0.43999615  0.05250038  0.00184345    -0.21500
C44         C  0.07470572  0.43918706  0.02044474    -0.22600
C45         C  0.07286624  0.47297048  0.01834183    -0.22600
C46         C  0.35616723  0.43134052  0.01107791    -0.22600
C47         C  0.35457577  0.46513539  0.00838906    -0.22600
C48         C  0.03123938  0.39391289  0.01067781    -0.17900
C49         C  0.40435644  0.38973965  0.00646940    -0.17900
C50         C  0.39588659  0.00771027  0.99164099    -0.17900
C51         C  0.02749822  0.01569419  0.00467406    -0.17900
H52         H  0.00445271  0.32884216  0.99255095     0.15000
H53         H  0.43767703  0.32706087  0.98957934     0.15000
H54         H  0.49159771  0.07641198  0.00621171     0.15000
H55         H  0.42228800  0.07346183  0.00510858     0.15000
H56         H  0.09861887  0.42481064  0.02513031     0.13300
H57         H  0.09507270  0.48968140  0.02100122     0.13300
H58         H  0.33371272  0.41500664  0.01351271     0.13300
H59         H  0.33063281  0.47985220  0.00844061     0.13300
H60         H  0.46744278  0.42669004  0.01907090     0.26500
H61         H  0.46473787  0.48010268  0.01905429     0.26500
C62         C  0.05392028  0.04242477  0.00096504     0.03500
C63         C  0.06315675  0.06203359  0.03975883    -0.12700
C64         C  0.08947825  0.08629899  0.03632238     0.01000
C65         C  0.10099061  0.09402310  0.49275970    -0.11200
C66         C  0.09302804  0.07450757  0.45381703     0.03500
C67         C  0.06818430  0.04922192  0.45688327    -0.10600
H68         H  0.05005195  0.05825013  0.07232293     0.09100
H69         H  0.12128725  0.11270985  0.49026280     0.06600
H70         H  0.06216567  0.03388637  0.42687226     0.06500
O71         O  0.18878932  0.23599165  0.34632157    -0.79800
O72         O  0.18789812  0.17800128  0.15813815    -0.79800
O73         O  0.20778450  0.28602127  0.21329841    -0.79800
O74         O  0.19996273  0.12670087  0.29370892    -0.79700
O75         O  0.18239562  0.24048881  0.18677951    -0.79900
O76         O  0.17835839  0.16760119  0.33791855    -0.79800
O77         O  0.17228033  0.14951651  0.21668246    -0.79800
O78         O  0.17052360  0.25400695  0.27853819    -0.79800
C79         C  0.16882812  0.25409731  0.32213230     1.09900
C80         C  0.16735878  0.15733532  0.17533338     1.09800
C81         C  0.18488227  0.27236385  0.18708464     1.09900
C82         C  0.17843484  0.13745894  0.32430844     1.09800
O83         O  0.25119418  0.15815916  0.33973897    -0.79800
O84         O  0.24043344  0.22257333  0.14012940    -0.79800
O85         O  0.24243213  0.26780973  0.29365651    -0.79800
O86         O  0.23482780  0.11764722  0.20427988    -0.79800
O87         O  0.25855748  0.16622575  0.18540206    -0.79800
O88         O  0.26285646  0.22521364  0.33256091    -0.79800
O89         O  0.26986499  0.15198965  0.26976244    -0.79700
O90         O  0.26153231  0.24226038  0.20624682    -0.79800
Co91       Co  0.21991823  0.19718847  0.33400574     1.51500
Co92       Co  0.22189472  0.20475552  0.19480164     1.51700
Co93       Co  0.21507109  0.24481749  0.24410511     1.51600
Co94       Co  0.22081271  0.15343510  0.24241672     1.51500
O95         O  0.21190888  0.19726470  0.26421286    -1.41700
C96         C  0.27247275  0.14524540  0.31182075     1.09900
C97         C  0.26175265  0.24169014  0.16149476     1.09900
C98         C  0.26428882  0.25543294  0.32190220     1.09900
C99         C  0.25572822  0.13423259  0.17912250     1.09900
C100        C  0.11002240  0.09137366  0.11830141    -0.11900
C101        C  0.10117019  0.10684488  0.07661016     0.05100
C102        C  0.10941627  0.14068448  0.07142682    -0.07200
C103        C  0.12930141  0.15710945  0.10546291    -0.07900
C104        C  0.14041276  0.14100637  0.14564299    -0.02500
C105        C  0.12953897  0.10809935  0.15275744     0.04300
N106        N  0.14156765  0.09005688  0.19202409     0.66800
H107        H  0.10434725  0.06537967  0.12266235     0.15700
H108        H  0.13707322  0.18245647  0.09968988     0.15500
N109        N  0.09883661  0.15841623  0.03103682     0.74500
O110        O  0.12053835  0.08436158  0.22441614    -0.38900
O111        O  0.17073663  0.07489629  0.19047168    -0.38800
O112        O  0.06652389  0.16084213  0.02045263    -0.39600
O113        O  0.12137054  0.17426180  0.00845630    -0.39600
C114        C  0.09660174  0.10233993  0.37837971    -0.11900
C115        C  0.11199993  0.08119128  0.41080202     0.05100
C116        C  0.14813495  0.07344194  0.40778052    -0.07200
C117        C  0.16933492  0.09039614  0.37670484    -0.07900
C118        C  0.15465467  0.11436031  0.34762224    -0.02500
C119        C  0.11763995  0.11870412  0.34641088     0.04300
N120        N  0.10113484  0.13994821  0.31349344     0.66800
H121        H  0.06864953  0.10805815  0.38013129     0.15700
H122        H  0.19752506  0.08638818  0.37739442     0.15500
N123        N  0.16381944  0.05020027  0.43864999     0.74500
O124        O  0.08004363  0.12796799  0.28376963    -0.38900
O125        O  0.10265718  0.17083865  0.31897582    -0.38800
O126        O  0.15715205  0.01981514  0.43364087    -0.39600
O127        O  0.17898942  0.06035878  0.47511536    -0.39600
C128        C  0.26966699  0.08363508  0.13169230    -0.11900
C129        C  0.27740840  0.11679892  0.14341481     0.05900
C130        C  0.30302672  0.13346760  0.11717209    -0.07200
C131        C  0.31836897  0.11773161  0.07888208    -0.07900
C132        C  0.30963419  0.08519413  0.06651890    -0.02500
C133        C  0.28555746  0.06782607  0.09369274     0.04300
N134        N  0.27536423  0.03486322  0.08138651     0.66800
H135        H  0.25004115  0.07023549  0.15083211     0.15700
H136        H  0.33748767  0.13100139  0.05868135     0.15500
N137        N  0.31420846  0.16621970  0.12902633     0.74500
O138        O  0.25255682  0.03007668  0.04994055    -0.38900
O139        O  0.28570984  0.01097183  0.10566407    -0.38800
O140        O  0.33434751  0.17068820  0.16352020    -0.39600
O141        O  0.30985506  0.18920045  0.10047571    -0.39600
C142        C  0.34496166  0.10455194  0.37885015    -0.11900
C143        C  0.32458555  0.08079792  0.40115919     0.05100
C144        C  0.29113782  0.07258255  0.38326139    -0.07200
C145        C  0.27651244  0.09132133  0.34770834    -0.07900
C146        C  0.29485669  0.11808256  0.32927481    -0.02500
C147        C  0.33062113  0.12287426  0.34193161     0.04300
N148        N  0.35204310  0.14649895  0.31860011     0.66800
H149        H  0.37130074  0.10991200  0.39178212     0.15700
H150        H  0.24948204  0.08677306  0.33704020     0.15500
N151        N  0.27045777  0.04748913  0.40421034     0.74500
O152        O  0.37914341  0.15845487  0.33823110    -0.38900
O153        O  0.34723551  0.15138895  0.27603254    -0.38800
O154        O  0.24384214  0.05552667  0.42766778    -0.39600
O155        O  0.28146986  0.01801150  0.40473813    -0.39600
C156        C  0.10899197  0.29512624  0.10735091    -0.11900
C157        C  0.12312493  0.32229100  0.08472280     0.05100
C158        C  0.15551058  0.33571431  0.09997983    -0.07200
C159        C  0.17423311  0.32067949  0.13618114    -0.07900
C160        C  0.16118106  0.29209239  0.15705026    -0.02500
C161        C  0.12743622  0.28019906  0.14376124     0.04300
N162        N  0.11138220  0.25334908  0.16738675     0.66800
H163        H  0.08364148  0.28529133  0.09630764     0.15700
H164        H  0.20003354  0.33012883  0.14593930     0.15500
N165        N  0.17006705  0.36398237  0.07807638     0.74500
O166        O  0.10606918  0.25568941  0.21026317    -0.38900
O167        O  0.09815702  0.22948933  0.14473904    -0.38800
O168        O  0.16515514  0.39885782  0.60539576    -0.39600
O169        O  0.18086377  0.37264798  0.54252191    -0.39600
C170        C  0.15864923  0.31057486  0.35311187    -0.11900
C171        C  0.14614682  0.27812776  0.34678819     0.05100
C172        C  0.11629211  0.26801577  0.37154178    -0.07200
C173        C  0.10000945  0.28994334  0.40249357    -0.07900
C174        C  0.11395834  0.32137897  0.41114304    -0.02500
C175        C  0.14295861  0.33218154  0.38540890     0.04300
N176        N  0.15822484  0.36396210  0.39433633     0.66800
H177        H  0.18208735  0.31840731  0.33514209     0.15700
H178        H  0.07839729  0.28120885  0.42329707     0.15500
N179        N  0.10425913  0.23467050  0.36944408     0.74500
O180        O  0.18972507  0.36619373  0.40868774    -0.38900
O181        O  0.13986376  0.38981888  0.38948681    -0.38800
O182        O  0.12162156  0.21287997  0.39078278    -0.39600
O183        O  0.07243418  0.22909499  0.35861693    -0.39600
C184        C  0.33628879  0.29297899  0.11065220    -0.11900
C185        C  0.31794876  0.30809132  0.07399804     0.05100
C186        C  0.28090006  0.30387936  0.07031778    -0.07200
C187        C  0.26395668  0.28199230  0.09945259    -0.07900
C188        C  0.28233255  0.26559063  0.13459307    -0.02500
C189        C  0.31851782  0.27244505  0.14179014     0.04300
N190        N  0.33778520  0.25770245  0.17893647     0.66800
H191        H  0.36459368  0.29617346  0.11412128     0.15700
H192        H  0.23579929  0.27807614  0.09497588     0.15500
N193        N  0.26024664  0.32116192  0.03637013     0.74500
O194        O  0.36380793  0.23910400  0.17035502    -0.38900
O195        O  0.33317637  0.26819312  0.21967659    -0.38800
O196        O  0.23602151  0.30640618  0.01410993    -0.39600
O197        O  0.26485197  0.35168364  0.03039533    -0.39600
C198        C  0.34152565  0.28323482  0.39618884    -0.11900
C199        C  0.32977396  0.31456179  0.41034252     0.05100
C200        C  0.29993997  0.32870475  0.38865390    -0.07200
C201        C  0.28071985  0.31010102  0.35592762    -0.07900
C202        C  0.29021936  0.27717941  0.34572152    -0.02500
C203        C  0.32204234  0.26448054  0.36416698     0.04300
N204        N  0.33389118  0.23188609  0.35264883     0.66800
H205        H  0.36440408  0.27222971  0.41286583     0.15700
H206        H  0.25639718  0.32033269  0.34202539     0.15500
N207        N  0.28668562  0.36033811  0.40307827     0.74500
O208        O  0.35024233  0.22681408  0.31547021    -0.38900
O209        O  0.33251253  0.20940118  0.38233055    -0.38800
O210        O  0.28432705  0.38342689  0.37435624    -0.39600
O211        O  0.27172998  0.36345221  0.44161653    -0.39600
C212        C  0.37902679  0.36246588  0.50438379     0.03500
C213        C  0.36312645  0.34909073  0.54394115    -0.12700
C214        C  0.33665115  0.32490447  0.53881681     0.01000
C215        C  0.32880776  0.31206227  0.99035660    -0.11200
C216        C  0.34233576  0.32733191  0.95155358     0.03500
C217        C  0.36687289  0.35281370  0.95699527    -0.10600
H218        H  0.37053915  0.35812353  0.57804679     0.09100
H219        H  0.31023821  0.29192275  0.98550472     0.06600
H220        H  0.37759948  0.36458169  0.92685392     0.06500
C221        C  0.06205313  0.37226878  0.49789265     0.03500
C222        C  0.07000721  0.35682428  0.96334439    -0.12700
C223        C  0.09665973  0.33284051  0.95990496     0.01000
C224        C  0.11400634  0.32204350  0.99995840    -0.11200
C225        C  0.10745707  0.34088815  0.53807539     0.03500
C226        C  0.07839089  0.36234198  0.53921642    -0.10600
H227        H  0.05623058  0.36499150  0.93253341     0.09100
H228        H  0.13446993  0.30327746  0.99740803     0.06600
H229        H  0.06850631  0.37132925  0.57208032     0.06500
C230        C  0.36865203  0.03307608  0.49781317     0.03500
C231        C  0.35926148  0.04644439  0.94460060    -0.12700
C232        C  0.33411785  0.07177307  0.94122826     0.01000
C233        C  0.31756709  0.08379273  0.98125679    -0.11200
C234        C  0.32636398  0.07195236  0.53065848     0.03500
C235        C  0.35158306  0.04684861  0.53641463    -0.10600
H236        H  0.37233927  0.03729387  0.91383898     0.09100
H237        H  0.29828808  0.10360254  0.97867287     0.06600
H238        H  0.35833166  0.03842964  0.57076990     0.06500
N239        N  0.46950796  0.40209958  0.51015935    -0.36200
N240        N  0.01839897  0.45550773  0.50029074    -0.56800
N241        N  0.46208668  0.00199780  0.51211525    -0.36200
N242        N  0.41161758  0.44991305  0.50386067    -0.56800
C243        C  0.49951004  0.38441678  0.50289201     0.27300
C244        C  0.44181399  0.38121120  0.50462829     0.27400
C245        C  0.48992438  0.02262293  0.50746643     0.27300
C246        C  0.43233188  0.02004832  0.50520474     0.27300
C247        C  0.04120806  0.43002251  0.50515856     0.36000
C248        C  0.03763376  0.48340898  0.50537772     0.36000
C249        C  0.39222167  0.42236308  0.51004639     0.36000
C250        C  0.38870341  0.47566179  0.50339147     0.36000
C251        C  0.49073407  0.35165583  0.49401472    -0.21500
C252        C  0.45447771  0.34964621  0.49509791    -0.21500
C253        C  0.47763083  0.05435368  0.49926285    -0.21500
C254        C  0.44146025  0.05276699  0.49791505    -0.21500
C255        C  0.07515991  0.44183579  0.51283403    -0.22600
C256        C  0.07285451  0.47563556  0.51313707    -0.22600
C257        C  0.35673524  0.43068178  0.51327707    -0.22600
C258        C  0.35450612  0.46434708  0.50894788    -0.22600
C259        C  0.03244834  0.39628591  0.49948860    -0.17900
C260        C  0.40541615  0.38954144  0.50841150    -0.17900
C261        C  0.39706064  0.00820311  0.50418431    -0.17900
C262        C  0.02581006  0.01600395  0.50230017    -0.17900
H263        H  0.00681218  0.33178195  0.47486054     0.15000
H264        H  0.43921209  0.32738352  0.48933956     0.15000
H265        H  0.49310282  0.07636620  0.49379664     0.15000
H266        H  0.42394420  0.07342936  0.49138044     0.15000
H267        H  0.09925798  0.42765852  0.51704160     0.13300
H268        H  0.09474107  0.49254409  0.51766952     0.13300
H269        H  0.33458180  0.41415791  0.51712944     0.13300
H270        H  0.33032349  0.47871177  0.50902339     0.13300
H271        H  0.46812955  0.42628690  0.52213891     0.26500
H272        H  0.46413572  0.48068902  0.51651963     0.26500
C273        C  0.05150546  0.04339857  0.49909318     0.03500
C274        C  0.05932717  0.06342936  0.53802045    -0.12700
C275        C  0.08402106  0.08917033  0.53492363     0.01000
C276        C  0.10685076  0.08979957  0.99420122    -0.11200
C277        C  0.09701591  0.07120285  0.95524510     0.03500
C278        C  0.07045968  0.04752893  0.95847250    -0.10600
H279        H  0.04642620  0.05881033  0.57050254     0.09100
H280        H  0.12823415  0.10734766  0.99134053     0.06600
H281        H  0.06285087  0.03299507  0.92829330     0.06500
O282        O  0.18073146  0.23730445  0.84455216    -0.79800
O283        O  0.18164744  0.18201443  0.65662406    -0.79800
O284        O  0.20346674  0.28978058  0.71289476    -0.79800
O285        O  0.19607497  0.12921629  0.79133031    -0.79700
O286        O  0.17730703  0.24490044  0.68561485    -0.79900
O287        O  0.17227344  0.16894277  0.83517539    -0.79800
O288        O  0.16732755  0.15241607  0.71484580    -0.79800
O289        O  0.16509422  0.25814636  0.77715208    -0.79800
C290        C  0.16155355  0.25618103  0.82038961     1.09900
C291        C  0.16180930  0.16061999  0.67374368     1.09800
C292        C  0.18052890  0.27674038  0.68614317     1.09900
C293        C  0.17395204  0.13881692  0.82177158     1.09800
O294        O  0.24579735  0.16128169  0.83779829    -0.79800
O295        O  0.23541837  0.22692154  0.63936164    -0.79800
O296        O  0.23702328  0.27109343  0.79345971    -0.79800
O297        O  0.22991799  0.12134983  0.70311942    -0.79800
O298        O  0.25297890  0.16997180  0.68313210    -0.79800
O299        O  0.25560124  0.22832711  0.83342998    -0.79800
O300        O  0.26486160  0.15681794  0.76775745    -0.79700
O301        O  0.25642033  0.24500496  0.70651639    -0.79800
Co302      Co  0.21319747  0.19954164  0.83266236     1.51500
Co303      Co  0.21619223  0.20853596  0.69335884     1.51700
Co304      Co  0.20979897  0.24835455  0.74350123     1.51600
Co305      Co  0.21571270  0.15712188  0.74056745     1.51500
O306        O  0.20587556  0.20061451  0.76277043    -1.41700
C307        C  0.26784990  0.14975080  0.80969434     1.09900
C308        C  0.25714227  0.24507372  0.66181634     1.09900
C309        C  0.25823331  0.25832444  0.82213842     1.09900
C310        C  0.25066260  0.13786445  0.67788898     1.09900
C311        C  0.10658755  0.09325986  0.61610541    -0.11900
C312        C  0.09525797  0.10932427  0.57588515     0.05100
C313        C  0.10106575  0.14369743  0.57223669    -0.07200
C314        C  0.12137695  0.16030767  0.60579329    -0.07900
C315        C  0.13489557  0.14378142  0.64439896    -0.02500
C316        C  0.12616759  0.11014479  0.65036798     0.04300
N317        N  0.14047048  0.09173872  0.68801895     0.66800
H318        H  0.10273654  0.06686599  0.61930928     0.15700
H319        H  0.12744325  0.18616260  0.60095017     0.15500
N320        N  0.08725681  0.16185390  0.53393320     0.74500
O321        O  0.12123890  0.08531978  0.72202255    -0.38900
O322        O  0.16949306  0.07669251  0.68325577    -0.38800
O323        O  0.05429441  0.16369983  0.52749768    -0.39600
O324        O  0.10754994  0.17915159  0.50990656    -0.39600
C325        C  0.09611162  0.10204787  0.88269044    -0.11900
C326        C  0.11344341  0.07936695  0.91109252     0.05100
C327        C  0.14903775  0.07148680  0.90307049    -0.07200
C328        C  0.16786312  0.08908703  0.87014810    -0.07900
C329        C  0.15148426  0.11443040  0.84495478    -0.02500
C330        C  0.11465394  0.11947988  0.84916254     0.04300
N331        N  0.09598546  0.14258800  0.82053675     0.66800
H332        H  0.06848712  0.10759470  0.88864086     0.15700
H333        H  0.19587379  0.08473221  0.86704866     0.15500
N334        N  0.16684550  0.04744507  0.93067047     0.74500
O335        O  0.10392004  0.14526262  0.77854654    -0.38900
O336        O  0.06817008  0.15638849  0.83495746    -0.38800
O337        O  0.16491725  0.01722627  0.91960295    -0.39600
O338        O  0.18003926  0.05576901  0.96928033    -0.39600
C339        C  0.26072321  0.08941568  0.62575101    -0.11900
C340        C  0.27279734  0.11995051  0.64353507     0.05900
C341        C  0.30400826  0.13349664  0.62538404    -0.07200
C342        C  0.32165542  0.11705962  0.58936687    -0.07900
C343        C  0.30873597  0.08725415  0.57087113    -0.02500
C344        C  0.27819080  0.07326867  0.58945099     0.04300
N345        N  0.26360372  0.04358494  0.57009933     0.66800
H346        H  0.23661179  0.07869717  0.63854610     0.15700
H347        H  0.34531397  0.12784963  0.57529646     0.15500
N348        N  0.31826915  0.16377326  0.64312448     0.74500
O349        O  0.24446275  0.04491307  0.53424663    -0.38900
O350        O  0.26586856  0.01693754  0.59206439    -0.38800
O351        O  0.33955520  0.16315068  0.67690422    -0.39600
O352        O  0.31545329  0.18967655  0.61959804    -0.39600
C353        C  0.34225731  0.11037889  0.87560255    -0.11900
C354        C  0.32304976  0.08497476  0.89604438     0.05100
C355        C  0.29018642  0.07588702  0.87718478    -0.07200
C356        C  0.27473903  0.09515500  0.84282179    -0.07900
C357        C  0.29166960  0.12335938  0.82644482    -0.02500
C358        C  0.32721633  0.12925293  0.83963775     0.04300
N359        N  0.34794049  0.15399851  0.81738303     0.66800
H360        H  0.36826696  0.11634029  0.88915259     0.15700
H361        H  0.24814785  0.08960735  0.83129920     0.15500
N362        N  0.27079352  0.04911483  0.89602465     0.74500
O363        O  0.37754620  0.16249217  0.83407776    -0.38900
O364        O  0.33937146  0.16374747  0.77759478    -0.38800
O365        O  0.24534915  0.05514093  0.92260156    -0.39600
O366        O  0.28247173  0.01995439  0.89224234    -0.39600
C367        C  0.10842654  0.30047614  0.60124240    -0.11900
C368        C  0.12334172  0.32825820  0.58104324     0.05100
C369        C  0.15408500  0.34230423  0.60053736    -0.07200
C370        C  0.17118224  0.32664258  0.63757579    -0.07900
C371        C  0.15778153  0.29714712  0.65560306    -0.02500
C372        C  0.12483336  0.28522888  0.63903098     0.04300
N373        N  0.10742774  0.25821360  0.66079410     0.66800
H374        H  0.08395021  0.29052379  0.58728865     0.15700
H375        H  0.19605067  0.33648873  0.65037418     0.15500
N376        N  0.16831754  0.37218002  0.58269874     0.74500
O377        O  0.10408519  0.25829757  0.70412284    -0.38900
O378        O  0.09081906  0.23706761  0.63670038    -0.38800
O379        O  0.17100466  0.39142165  0.09927934    -0.39600
O380        O  0.17991266  0.36213520  0.03662156    -0.39600
C381        C  0.14399879  0.31191651  0.84911880    -0.11900
C382        C  0.13662984  0.27793299  0.84532469     0.05100
C383        C  0.11084272  0.26431464  0.87404213    -0.07200
C384        C  0.09547785  0.28369419  0.90878161    -0.07900
C385        C  0.10538367  0.31668727  0.91548832    -0.02500
C386        C  0.12835268  0.33142266  0.88394586     0.04300
N387        N  0.13819714  0.36532381  0.88938554     0.66800
H388        H  0.16396163  0.32270269  0.82747750     0.15700
H389        H  0.07742045  0.27232821  0.93258723     0.15500
N390        N  0.10069114  0.23051696  0.86924553     0.74500
O391        O  0.16438253  0.37307897  0.91451341    -0.38900
O392        O  0.11853756  0.38768985  0.87315789    -0.38800
O393        O  0.11826169  0.20854204  0.88989772    -0.39600
O394        O  0.07004866  0.22391626  0.85440198    -0.39600
C395        C  0.33437954  0.29378451  0.61318476    -0.11900
C396        C  0.31669564  0.31108997  0.57800998     0.05100
C397        C  0.27943727  0.30933551  0.57502320    -0.07200
C398        C  0.26130891  0.28748540  0.60293876    -0.07900
C399        C  0.27892996  0.26883141  0.63644617    -0.02500
C400        C  0.31559644  0.27341710  0.64351014     0.04300
N401        N  0.33423608  0.25664762  0.67959585     0.66800
H402        H  0.36289206  0.29518078  0.61602532     0.15700
H403        H  0.23290992  0.28530870  0.59875740     0.15500
N404        N  0.25981309  0.32909334  0.54284723     0.74500
O405        O  0.36239322  0.24112148  0.67069104    -0.38900
O406        O  0.32633245  0.26240005  0.72116717    -0.38800
O407        O  0.23445634  0.31671343  0.51992110    -0.39600
O408        O  0.26586231  0.35966396  0.54025042    -0.39600
C409        C  0.33851180  0.28327435  0.89298552    -0.11900
C410        C  0.32930251  0.31548283  0.90626475     0.05100
C411        C  0.30023249  0.33098292  0.88472220    -0.07200
C412        C  0.27854356  0.31275722  0.85421112    -0.07900
C413        C  0.28554775  0.27914926  0.84506842    -0.02500
C414        C  0.31699850  0.26513391  0.86266271     0.04300
N415        N  0.32710725  0.23218236  0.85082145     0.66800
H416        H  0.36093801  0.27120166  0.90925785     0.15700
H417        H  0.25479461  0.32421900  0.84052774     0.15500
N418        N  0.29043548  0.36403034  0.89717886     0.74500
O419        O  0.34538647  0.22730181  0.81521796    -0.38900
O420        O  0.32463946  0.20973163  0.88042344    -0.38800
O421        O  0.30221596  0.38789386  0.87445217    -0.39600
O422        O  0.26633354  0.36905427  0.92622905    -0.39600
C423        C  0.37595866  0.86040792  0.00349111     0.03500
C424        C  0.36335536  0.84709681  0.04499547    -0.12700
C425        C  0.33926213  0.82074132  0.04351544     0.01000
C426        C  0.33335224  0.80633071  0.49200640    -0.11200
C427        C  0.34615010  0.82259728  0.45356346     0.03500
C428        C  0.36843826  0.84969562  0.45956317    -0.10600
H429        H  0.37170638  0.85757889  0.07793167     0.09100
H430        H  0.31601399  0.78528684  0.48675327     0.06600
H431        H  0.37855547  0.86224176  0.42967056     0.06500
C432        C  0.06272483  0.87157691  0.99858198     0.03500
C433        C  0.07446288  0.85909225  0.46076541    -0.12700
C434        C  0.10152664  0.83534128  0.45891744     0.01000
C435        C  0.11818100  0.82538165  0.49994379    -0.11200
C436        C  0.10716235  0.84004709  0.03977842     0.03500
C437        C  0.07956102  0.86296342  0.04005661    -0.10600
H438        H  0.06115379  0.86655889  0.42926345     0.09100
H439        H  0.13870560  0.80661363  0.49870744     0.06600
H440        H  0.07105749  0.87399014  0.07243642     0.06500
C441        C  0.37012295  0.53379527  0.99089559     0.03500
C442        C  0.36015988  0.54462526  0.44400581    -0.12700
C443        C  0.33409462  0.56891286  0.43824371     0.01000
C444        C  0.31635029  0.58156013  0.47701426    -0.11200
C445        C  0.32610148  0.57117008  0.02294665     0.03500
C446        C  0.35251641  0.54726985  0.02918417    -0.10600
H447        H  0.37401828  0.53484596  0.41421897     0.09100
H448        H  0.29622268  0.60043455  0.47254238     0.06600
H449        H  0.35995688  0.53960756  0.06364696     0.06500
N450        N  0.46574388  0.89967182  0.00013154    -0.36200
N451        N  0.02052724  0.95548596  0.00309363    -0.56800
N452        N  0.46356448  0.50397785  0.00508589    -0.36200
N453        N  0.40852017  0.94831560  0.99943702    -0.56800
C454        C  0.49569904  0.88202673  0.00750200     0.27300
C455        C  0.43807739  0.87984154  0.00955497     0.27400
C456        C  0.49123844  0.52432233  0.99860846     0.27300
C457        C  0.43384821  0.52126431  0.99571855     0.27300
C458        C  0.04304266  0.92963065  0.00603089     0.36000
C459        C  0.04024825  0.98303382  0.00877906     0.36000
C460        C  0.38887047  0.92048238  0.99699220     0.36000
C461        C  0.38626551  0.97390944  0.99150727     0.36000
C462        C  0.48695503  0.85038968  0.02109168    -0.21500
C463        C  0.45068328  0.84900178  0.02236962    -0.21500
C464        C  0.47891600  0.55536082  0.98649323    -0.21500
C465        C  0.44278713  0.55345994  0.98466735    -0.21500
C466        C  0.07730510  0.94088443  0.01301187    -0.22600
C467        C  0.07548844  0.97467560  0.01497762    -0.22600
C468        C  0.35377329  0.92852964  0.98845079    -0.22600
C469        C  0.35214012  0.96232851  0.98493085    -0.22600
C470        C  0.03366524  0.89606221  0.99987368    -0.17900
C471        C  0.40179256  0.88797611  0.00402915    -0.17900
C472        C  0.39875022  0.50944600  0.99785610    -0.17900
C473        C  0.02492886  0.51316830  0.00216881    -0.17900
H474        H  0.00717888  0.83128897  0.97817663     0.15000
H475        H  0.43539202  0.82751750  0.03127521     0.15000
H476        H  0.49433075  0.57710649  0.97918253     0.15000
H477        H  0.42519219  0.57365359  0.97606943     0.15000
H478        H  0.10129610  0.92637443  0.01574650     0.13300
H479        H  0.09770407  0.99120881  0.01948242     0.13300
H480        H  0.33158995  0.91183502  0.98522609     0.13300
H481        H  0.32848953  0.97672987  0.97839389     0.13300
H482        H  0.46424481  0.92247002  0.98450271     0.26500
H483        H  0.46197940  0.97646768  0.98272890     0.26500
C484        C  0.05132451  0.53974088  0.99755059     0.03500
C485        C  0.06155180  0.55872765  0.03641253    -0.12700
C486        C  0.08799429  0.58273830  0.03278274     0.01000
C487        C  0.10160930  0.59220938  0.49095725    -0.11200
C488        C  0.09344034  0.57295412  0.45189775     0.03500
C489        C  0.06777843  0.54831651  0.45456638    -0.10600
H490        H  0.04894490  0.55475691  0.06928023     0.09100
H491        H  0.12229909  0.61052898  0.48870106     0.06600
H492        H  0.06139440  0.53330590  0.42436588     0.06500
O493        O  0.18233769  0.73507247  0.34531423    -0.79800
O494        O  0.17136101  0.68384470  0.15815276    -0.79800
O495        O  0.20193645  0.78828699  0.21672288    -0.79800
O496        O  0.19810207  0.62726113  0.28961723    -0.79700
O497        O  0.17949308  0.74545885  0.17698677    -0.79900
O498        O  0.17375030  0.66724093  0.33212336    -0.79800
O499        O  0.16724507  0.65016320  0.21456517    -0.79800
O500        O  0.16458347  0.75285833  0.27711757    -0.79800
C501        C  0.16217539  0.75286372  0.32074670     1.09900
C502        C  0.15664077  0.65946420  0.17523883     1.09800
C503        C  0.18145844  0.77692883  0.18510509     1.09900
C504        C  0.17529968  0.63713456  0.31912021     1.09800
O505        O  0.24826018  0.65896349  0.33482656    -0.79800
O506        O  0.24314144  0.72936584  0.15712048    -0.79800
O507        O  0.23466589  0.77020129  0.30211464    -0.79800
O508        O  0.23005566  0.61953129  0.19856292    -0.79800
O509        O  0.23974035  0.66751846  0.16391511    -0.79800
O510        O  0.25697388  0.72619677  0.33616223    -0.79800
O511        O  0.26654745  0.65342022  0.26350036    -0.79700
O512        O  0.26125081  0.74910017  0.22205886    -0.79800
Co513      Co  0.21501805  0.69722439  0.33304563     1.51500
Co514      Co  0.20925702  0.70451876  0.19278787     1.51700
Co515      Co  0.21176319  0.74779126  0.24805975     1.51600
Co516      Co  0.21748709  0.65545002  0.23841977     1.51500
O517        O  0.21222579  0.70049759  0.26396692    -1.41700
C518        C  0.26962274  0.64675170  0.30586336     1.09900
C519        C  0.26446300  0.74732514  0.17873134     1.09900
C520        C  0.25813194  0.75674202  0.32729603     1.09900
C521        C  0.24419828  0.63584102  0.16614599     1.09900
C522        C  0.10928513  0.58813506  0.11479423    -0.11900
C523        C  0.09909302  0.60334279  0.07333099     0.05100
C524        C  0.10273550  0.63790350  0.06975057    -0.07200
C525        C  0.11799441  0.65609762  0.10602638    -0.07900
C526        C  0.13069751  0.64076428  0.14623965    -0.02500
C527        C  0.12520684  0.60642218  0.15104258     0.04300
N528        N  0.13884640  0.58915460  0.19012248     0.66800
H529        H  0.10694793  0.56157611  0.11795378     0.15700
H530        H  0.12201902  0.68230438  0.10117665     0.15500
N531        N  0.09245873  0.65483211  0.02865522     0.74500
O532        O  0.12050058  0.58712539  0.22606820    -0.38900
O533        O  0.16622340  0.57149375  0.18604292    -0.38800
O534        O  0.06031370  0.66154127  0.02150504    -0.39600
O535        O  0.11569970  0.66808681  0.00413094    -0.39600
C536        C  0.09524840  0.60466664  0.38003937    -0.11900
C537        C  0.11095657  0.58091898  0.40824555     0.05100
C538        C  0.14601164  0.57104916  0.40015605    -0.07200
C539        C  0.16599459  0.58745097  0.36702001    -0.07900
C540        C  0.15129418  0.61357765  0.34164026    -0.02500
C541        C  0.11483083  0.62092660  0.34632281     0.04300
N542        N  0.09760833  0.64534956  0.31819617     0.66800
H543        H  0.06805795  0.61180888  0.38616842     0.15700
H544        H  0.19370281  0.58149786  0.36371794     0.15500
N545        N  0.16220077  0.54611721  0.42784444     0.74500
O546        O  0.10686346  0.64924612  0.27691409    -0.38900
O547        O  0.06984527  0.65951925  0.33211110    -0.38800
O548        O  0.15499578  0.51610494  0.42015127    -0.39600
O549        O  0.17873892  0.55423720  0.46428692    -0.39600
C550        C  0.27061922  0.58463068  0.13073921    -0.11900
C551        C  0.26721421  0.61928073  0.13137105     0.05900
C552        C  0.28645556  0.63767046  0.09866858    -0.07200
C553        C  0.30645925  0.62129167  0.06523196    -0.07900
C554        C  0.30793239  0.58678289  0.06280265    -0.02500
C555        C  0.29073999  0.56831723  0.09684354     0.04300
N556        N  0.29189166  0.53301239  0.09604485     0.66800
H557        H  0.25681540  0.56998831  0.15580962     0.15700
H558        H  0.32036862  0.63579524  0.04005385     0.15500
N559        N  0.28565766  0.67301479  0.09787566     0.74500
O560        O  0.27086139  0.51707890  0.07012218    -0.38900
O561        O  0.30983784  0.51790485  0.12611899    -0.38800
O562        O  0.31323356  0.68898027  0.10835433    -0.39600
O563        O  0.26091059  0.68740237  0.07650444    -0.39600
C564        C  0.34337462  0.60631791  0.37155754    -0.11900
C565        C  0.32388458  0.58109321  0.39207657     0.05100
C566        C  0.29092517  0.57229705  0.37318746    -0.07200
C567        C  0.27549855  0.59200437  0.33922153    -0.07900
C568        C  0.29289990  0.61995035  0.32260638    -0.02500
C569        C  0.32854725  0.62538401  0.33561230     0.04300
N570        N  0.34938697  0.65026177  0.31371298     0.66800
H571        H  0.36935553  0.61217907  0.38529222     0.15700
H572        H  0.24864026  0.58694207  0.32821309     0.15500
N573        N  0.27165597  0.54513167  0.39131430     0.74500
O574        O  0.37899874  0.65855138  0.33057462    -0.38900
O575        O  0.34079240  0.66054641  0.27418242    -0.38800
O576        O  0.24335541  0.55031721  0.41283606    -0.39600
O577        O  0.28468689  0.51637355  0.38990572    -0.39600
C578        C  0.10759242  0.80285883  0.10613114    -0.11900
C579        C  0.12336534  0.82893950  0.08310372     0.05100
C580        C  0.15577283  0.84179196  0.09918592    -0.07200
C581        C  0.17332660  0.82673364  0.13631859    -0.07900
C582        C  0.15888838  0.79869291  0.15690675    -0.02500
C583        C  0.12483456  0.78788840  0.14321488     0.04300
N584        N  0.10787399  0.76119339  0.16607899     0.66800
H585        H  0.08224768  0.79345122  0.09429766     0.15700
H586        H  0.19930317  0.83539648  0.14667501     0.15500
N587        N  0.17168546  0.86912759  0.07673662     0.74500
O588        O  0.10034908  0.76399617  0.20830236    -0.38900
O589        O  0.09664435  0.73662527  0.14306155    -0.38800
O590        O  0.16987546  0.89423757  0.60108996    -0.39600
O591        O  0.18588136  0.86369791  0.54218474    -0.39600
C592        C  0.14992130  0.80966301  0.35024394    -0.11900
C593        C  0.13902990  0.77653314  0.34553553     0.05100
C594        C  0.11199031  0.76505658  0.37409959    -0.07200
C595        C  0.09789222  0.78571999  0.40848268    -0.07900
C596        C  0.11051080  0.81790195  0.41535093    -0.02500
C597        C  0.13570821  0.83043703  0.38482195     0.04300
N598        N  0.14891191  0.86328301  0.39088117     0.66800
H599        H  0.17126333  0.81869735  0.32925497     0.15700
H600        H  0.07849887  0.77589235  0.43184430     0.15500
N601        N  0.09952296  0.73194536  0.36984102     0.74500
O602        O  0.17745906  0.86813730  0.41276257    -0.38900
O603        O  0.13023904  0.88762915  0.37871322    -0.38800
O604        O  0.11503018  0.70925759  0.39171945    -0.39600
O605        O  0.06898659  0.72695217  0.35343988    -0.39600
C606        C  0.34104806  0.78905719  0.11762429    -0.11900
C607        C  0.32193400  0.80789955  0.08529952     0.05100
C608        C  0.28481150  0.80908626  0.08794015    -0.07200
C609        C  0.26748037  0.79003414  0.12029909    -0.07900
C610        C  0.28614083  0.77041579  0.15187298    -0.02500
C611        C  0.32340428  0.77058487  0.15142386     0.04300
N612        N  0.34338901  0.75086868  0.18301428     0.66800
H613        H  0.36956161  0.78764604  0.11536254     0.15700
H614        H  0.23887795  0.78983483  0.11988385     0.15500
N615        N  0.26427132  0.82814367  0.05601452     0.74500
O616        O  0.36854396  0.73304087  0.16869644    -0.38900
O617        O  0.33838135  0.75394340  0.22584580    -0.38800
O618        O  0.24107828  0.81429330  0.03090157    -0.39600
O619        O  0.26892442  0.85892903  0.05335677    -0.39600
C620        C  0.34142635  0.78022539  0.39259064    -0.11900
C621        C  0.33238554  0.81195905  0.40819190     0.05100
C622        C  0.30247370  0.82785391  0.38936827    -0.07200
C623        C  0.27966124  0.81026777  0.35978441    -0.07900
C624        C  0.28639567  0.77696434  0.34879984    -0.02500
C625        C  0.31879321  0.76267144  0.36300006     0.04300
N626        N  0.32840314  0.72983243  0.34944600     0.66800
H627        H  0.36447735  0.76788505  0.40684979     0.15700
H628        H  0.25527640  0.82190439  0.34850638     0.15500
N629        N  0.29270267  0.86034904  0.40448797     0.74500
O630        O  0.34795850  0.72564487  0.31486833    -0.38900
O631        O  0.32465471  0.70656354  0.37752484    -0.38800
O632        O  0.30461675  0.88509848  0.38380301    -0.39600
O633        O  0.26767750  0.86413309  0.43249902    -0.39600
C634        C  0.37768331  0.86060094  0.50433519     0.03500
C635        C  0.36287396  0.84526474  0.54317542    -0.12700
C636        C  0.33972696  0.81839522  0.53679610     0.01000
C637        C  0.32875706  0.80749770  0.00066791    -0.11200
C638        C  0.34044333  0.82096737  0.95945211     0.03500
C639        C  0.36404935  0.84747540  0.96077851    -0.10600
H640        H  0.36864028  0.85466048  0.57761929     0.09100
H641        H  0.31024986  0.78709076  0.99935542     0.06600
H642        H  0.37332920  0.85785161  0.92883186     0.06500
C643        C  0.06361666  0.87224291  0.50361618     0.03500
C644        C  0.07321782  0.85669650  0.95668264    -0.12700
C645        C  0.10019728  0.83284143  0.95669059     0.01000
C646        C  0.11735403  0.82504011  0.99827810    -0.11200
C647        C  0.10773686  0.83851273  0.54269653     0.03500
C648        C  0.08026442  0.86178676  0.54451253    -0.10600
H649        H  0.05959076  0.86272458  0.92479018     0.09100
H650        H  0.13798231  0.80634566  0.99858329     0.06600
H651        H  0.07162971  0.87151853  0.57759218     0.06500
C652        C  0.36858160  0.53317272  0.48845053     0.03500
C653        C  0.36169824  0.54441633  0.94613541    -0.12700
C654        C  0.33572262  0.56856123  0.93968420     0.01000
C655        C  0.31791649  0.58167763  0.97803809    -0.11200
C656        C  0.32435144  0.57017303  0.52145220     0.03500
C657        C  0.35053303  0.54588688  0.52698414    -0.10600
H658        H  0.37537333  0.53397762  0.91661918     0.09100
H659        H  0.29741344  0.60008906  0.97278733     0.06600
H660        H  0.35758786  0.53752753  0.56126763     0.06500
N661        N  0.46716702  0.90040875  0.50724996    -0.36200
N662        N  0.01992529  0.95570883  0.50520697    -0.56800
N663        N  0.46271427  0.50386738  0.50199603    -0.36200
N664        N  0.40967692  0.94865452  0.50960290    -0.56800
C665        C  0.49709015  0.88219806  0.51148258     0.27300
C666        C  0.43950859  0.87972532  0.51257543     0.27400
C667        C  0.49029113  0.52435064  0.49521548     0.27300
C668        C  0.43281503  0.52088872  0.49193475     0.27300
C669        C  0.04273727  0.93030751  0.51117023     0.36000
C670        C  0.03899820  0.98376767  0.50983274     0.36000
C671        C  0.38991582  0.92092542  0.50717376     0.36000
C672        C  0.38716438  0.97450926  0.50602036     0.36000
C673        C  0.48832137  0.84943501  0.51871255    -0.21500
C674        C  0.45209483  0.84787685  0.51943560    -0.21500
C675        C  0.47774607  0.55505977  0.48188915    -0.21500
C676        C  0.44158917  0.55290784  0.47984384    -0.21500
C677        C  0.07655603  0.94232352  0.51916293    -0.22600
C678        C  0.07414653  0.97617183  0.51852719    -0.22600
C679        C  0.35449169  0.92920989  0.50251817    -0.22600
C680        C  0.35274338  0.96311638  0.50182602    -0.22600
C681        C  0.03407870  0.89646561  0.50591253    -0.17900
C682        C  0.40316863  0.88818639  0.50938842    -0.17900
C683        C  0.39772870  0.50898689  0.49503929    -0.17900
C684        C  0.02446704  0.51579906  0.49967710    -0.17900
H685        H  0.00820225  0.83167428  0.48283683     0.15000
H686        H  0.43679069  0.82568977  0.52434700     0.15000
H687        H  0.49303059  0.57683145  0.47427985     0.15000
H688        H  0.42387905  0.57289285  0.47072808     0.15000
H689        H  0.10062225  0.92822730  0.52414181     0.13300
H690        H  0.09594338  0.99321050  0.52281131     0.13300
H691        H  0.33222354  0.91258179  0.49964198     0.13300
H692        H  0.32887004  0.97767617  0.49788603     0.13300
H693        H  0.46573610  0.92473482  0.49684567     0.26500
H694        H  0.46323724  0.97754008  0.52193011     0.26500
C695        C  0.05044266  0.54297638  0.49648320     0.03500
C696        C  0.05827116  0.56296516  0.53537569    -0.12700
C697        C  0.08376758  0.58801054  0.53265940     0.01000
C698        C  0.10463981  0.58669360  0.99012524    -0.11200
C699        C  0.09390042  0.56848071  0.95094820     0.03500
C700        C  0.06712974  0.54502735  0.95463869    -0.10600
H701        H  0.04478279  0.55880670  0.56757752     0.09100
H702        H  0.12604559  0.60419214  0.98713975     0.06600
H703        H  0.05897607  0.53063568  0.92456996     0.06500
O704        O  0.18487499  0.73071376  0.84559154    -0.79800
O705        O  0.18138291  0.67913682  0.65566116    -0.79800
O706        O  0.20510790  0.78513580  0.71574104    -0.79800
O707        O  0.19575729  0.62330212  0.78753175    -0.79700
O708        O  0.17774401  0.74112742  0.68782266    -0.79900
O709        O  0.17436920  0.66300708  0.83373546    -0.79800
O710        O  0.16724415  0.64873789  0.71295668    -0.79800
O711        O  0.16726705  0.75181847  0.77937925    -0.79800
C712        C  0.16453008  0.74925369  0.82266679     1.09900
C713        C  0.16128421  0.65787366  0.67240570     1.09800
C714        C  0.18164461  0.77287133  0.68903131     1.09900
C715        C  0.17433978  0.63325038  0.81874191     1.09800
O716        O  0.24711685  0.65323040  0.83448638    -0.79800
O717        O  0.23467403  0.72356106  0.63916296    -0.79800
O718        O  0.23979203  0.76414960  0.79511327    -0.79800
O719        O  0.22947227  0.61690740  0.69731031    -0.79800
O720        O  0.25274438  0.66603869  0.68048844    -0.79800
O721        O  0.25895530  0.72009857  0.83172421    -0.79800
O722        O  0.26540289  0.64937806  0.76400373    -0.79700
O723        O  0.25771879  0.74038229  0.70575313    -0.79800
Co724      Co  0.21591082  0.69242452  0.83134536     1.51500
Co725      Co  0.21646848  0.70445447  0.69289882     1.51700
Co726      Co  0.21166688  0.74293504  0.74440419     1.51600
Co727      Co  0.21607940  0.65168359  0.73761862     1.51500
O728        O  0.20750606  0.69486995  0.76191745    -1.41700
C729        C  0.26862258  0.64174072  0.80572389     1.09900
C730        C  0.25744684  0.74088861  0.66099465     1.09900
C731        C  0.26112195  0.75057212  0.82302979     1.09900
C732        C  0.25023558  0.63418916  0.67289701     1.09900
C733        C  0.10435215  0.59219796  0.61457441    -0.11900
C734        C  0.09463243  0.60820495  0.57364069     0.05100
C735        C  0.10154536  0.64236653  0.56969470    -0.07200
C736        C  0.12165696  0.65864954  0.60372288    -0.07900
C737        C  0.13373719  0.64204283  0.64306308    -0.02500
C738        C  0.12349417  0.60884882  0.64940264     0.04300
N739        N  0.13569950  0.59059153  0.68838250     0.66800
H740        H  0.09942356  0.56599568  0.61814321     0.15700
H741        H  0.12882840  0.68422108  0.59859012     0.15500
N742        N  0.08918567  0.66056704  0.53060650     0.74500
O743        O  0.11819654  0.59105109  0.72520830    -0.38900
O744        O  0.16200645  0.57152497  0.68459209    -0.38800
O745        O  0.05644212  0.66327062  0.52288409    -0.39600
O746        O  0.11056416  0.67708454  0.50710712    -0.39600
C747        C  0.09425251  0.59821865  0.87689407    -0.11900
C748        C  0.11064472  0.57561970  0.90645358     0.05100
C749        C  0.14605731  0.56664013  0.89911564    -0.07200
C750        C  0.16611248  0.58400552  0.86718155    -0.07900
C751        C  0.15084559  0.60968084  0.84155030    -0.02500
C752        C  0.11398749  0.61525860  0.84418866     0.04300
N753        N  0.09621513  0.63811448  0.81438431     0.66800
H754        H  0.06671906  0.60467289  0.88182123     0.15700
H755        H  0.19409158  0.57888855  0.86469436     0.15500
N756        N  0.16232442  0.54146586  0.92630546     0.74500
O757        O  0.06921994  0.62889962  0.79181691    -0.38900
O758        O  0.10428383  0.66832722  0.81515940    -0.38800
O759        O  0.15201433  0.51194346  0.92202785    -0.39600
O760        O  0.18244399  0.54942361  0.95957899    -0.39600
C761        C  0.27019031  0.58311003  0.63038976    -0.11900
C762        C  0.27261453  0.61762290  0.63710712     0.05900
C763        C  0.29389228  0.63576231  0.60648189    -0.07200
C764        C  0.31029101  0.61969609  0.56927369    -0.07900
C765        C  0.30693977  0.58558131  0.56205440    -0.02500
C766        C  0.28716921  0.56707298  0.59340510     0.04300
N767        N  0.28240708  0.53231021  0.58657053     0.66800
H768        H  0.25406862  0.56849684  0.65301264     0.15700
H769        H  0.32614014  0.63401895  0.54592344     0.15500
N770        N  0.29939102  0.67048992  0.61236499     0.74500
O771        O  0.26069928  0.52190799  0.55642628    -0.38900
O772        O  0.29636383  0.51226111  0.61439577    -0.38800
O773        O  0.32061036  0.68059818  0.64327892    -0.39600
O774        O  0.28985995  0.68987995  0.58078174    -0.39600
C775        C  0.34381964  0.60456337  0.87130624    -0.11900
C776        C  0.32510344  0.57943810  0.89311813     0.05100
C777        C  0.29256532  0.56913034  0.87460383    -0.07200
C778        C  0.27641735  0.58753539  0.83981510    -0.07900
C779        C  0.29286009  0.61557473  0.82194562    -0.02500
C780        C  0.32843235  0.62215399  0.83431858     0.04300
N781        N  0.34868411  0.64661753  0.81065036     0.66800
H782        H  0.36961311  0.61145223  0.88470231     0.15700
H783        H  0.24962610  0.58158601  0.82936768     0.15500
N784        N  0.27425769  0.54195439  0.89417174     0.74500
O785        O  0.37900350  0.65464339  0.82543147    -0.38900
O786        O  0.33886856  0.65654493  0.77140242    -0.38800
O787        O  0.24783615  0.54733658  0.91932502    -0.39600
O788        O  0.28762189  0.51334110  0.89233853    -0.39600
C789        C  0.10838827  0.79899308  0.60723450    -0.11900
C790        C  0.12414248  0.82569742  0.58534261     0.05100
C791        C  0.15649727  0.83810978  0.60236866    -0.07200
C792        C  0.17382227  0.82223289  0.63906748    -0.07900
C793        C  0.15922251  0.79394591  0.65901651    -0.02500
C794        C  0.12532039  0.78336590  0.64430806     0.04300
N795        N  0.10769671  0.75696784  0.66695314     0.66800
H796        H  0.08301963  0.78994740  0.59495974     0.15700
H797        H  0.19972710  0.83078361  0.64996075     0.15500
N798        N  0.17243530  0.86619843  0.58176655     0.74500
O799        O  0.10088818  0.75952663  0.70942637    -0.38900
O800        O  0.09489481  0.73324587  0.64361307    -0.38800
O801        O  0.16696600  0.89801297  0.09250873    -0.39600
O802        O  0.18542919  0.86510104  0.03755000    -0.39600
C803        C  0.14171513  0.80496567  0.84421245    -0.11900
C804        C  0.13970570  0.77042754  0.84891889     0.05100
C805        C  0.11913549  0.75740676  0.88487411    -0.07200
C806        C  0.10350839  0.77884112  0.91694167    -0.07900
C807        C  0.10876777  0.81299012  0.91511783    -0.02500
C808        C  0.12668440  0.82632068  0.87738458     0.04300
N809        N  0.13276581  0.86108243  0.87487452     0.66800
H810        H  0.15763788  0.81531897  0.81713676     0.15700
H811        H  0.08931129  0.76854005  0.94567841     0.15500
N812        N  0.11477228  0.72255969  0.89073228     0.74500
O813        O  0.15760852  0.87414191  0.89797408    -0.38900
O814        O  0.11199262  0.87905437  0.85178886    -0.38800
O815        O  0.14022422  0.70559417  0.90610769    -0.39600
O816        O  0.08391424  0.71110314  0.89344283    -0.39600
C817        C  0.33531830  0.78954785  0.61321765    -0.11900
C818        C  0.31876126  0.80394069  0.57464357     0.05100
C819        C  0.28192658  0.79996801  0.56835196    -0.07200
C820        C  0.26333737  0.77923823  0.59722158    -0.07900
C821        C  0.27983122  0.76358944  0.63452663    -0.02500
C822        C  0.31585614  0.77011574  0.64406770     0.04300
N823        N  0.33319845  0.75647894  0.68362473     0.66800
H824        H  0.36346675  0.79267367  0.61866879     0.15700
H825        H  0.23530190  0.77579407  0.59082451     0.15500
N826        N  0.26308415  0.81668698  0.53226718     0.74500
O827        O  0.36050285  0.73885841  0.67852291    -0.38900
O828        O  0.32553900  0.76724785  0.72339861    -0.38800
O829        O  0.24097328  0.80127088  0.50722913    -0.39600
O830        O  0.26657615  0.84746810  0.52769324    -0.39600
C831        C  0.33551214  0.77377088  0.90520880    -0.11900
C832        C  0.32680941  0.80660425  0.91580332     0.05100
C833        C  0.30052686  0.82273799  0.88962573    -0.07200
C834        C  0.28099010  0.80481149  0.85639261    -0.07900
C835        C  0.28747178  0.77090618  0.84884803    -0.02500
C836        C  0.31653570  0.75606491  0.87158038     0.04300
N837        N  0.32739088  0.72315231  0.86034691     0.66800
H838        H  0.35632421  0.76144725  0.92446691     0.15700
H839        H  0.25908560  0.81688480  0.83901290     0.15500
N840        N  0.29124959  0.85636232  0.89936633     0.74500
O841        O  0.34323115  0.71779526  0.82289228    -0.38900
O842        O  0.32657009  0.70096336  0.89052361    -0.38800
O843        O  0.30045306  0.87873554  0.87211697    -0.39600
O844        O  0.26994408  0.86309172  0.93139438    -0.39600
C845        C  0.87606928  0.36108461  0.01156409     0.03500
C846        C  0.86319857  0.34596751  0.05165106    -0.12700
C847        C  0.83904006  0.31974534  0.04758712     0.01000
C848        C  0.83139302  0.30778380  0.49075342    -0.11200
C849        C  0.84480827  0.32239948  0.45141436     0.03500
C850        C  0.86782740  0.34913062  0.45578553    -0.10600
H851        H  0.87126757  0.35504864  0.08548607     0.09100
H852        H  0.81341192  0.28708988  0.48675782     0.06600
H853        H  0.87819664  0.36053590  0.42514933     0.06500
C854        C  0.56259706  0.37163860  0.00158433     0.03500
C855        C  0.57532065  0.35864984  0.46140305    -0.12700
C856        C  0.60272836  0.33518066  0.46008118     0.01000
C857        C  0.61928155  0.32565668  0.50136865    -0.11200
C858        C  0.60746178  0.34006456  0.04220149     0.03500
C859        C  0.57904889  0.36221677  0.04301916    -0.10600
H860        H  0.56207495  0.36574502  0.42968666     0.09100
H861        H  0.63994629  0.30701163  0.50053503     0.06600
H862        H  0.56973479  0.37209644  0.07569602     0.06500
C863        C  0.87000990  0.03319760  0.99246684     0.03500
C864        C  0.85801485  0.04176539  0.44509621    -0.12700
C865        C  0.83144196  0.06551504  0.43957471     0.01000
C866        C  0.81470118  0.07889778  0.47866956    -0.11200
C867        C  0.82481218  0.06930131  0.02448045     0.03500
C868        C  0.85093618  0.04512265  0.03053729    -0.10600
H869        H  0.87098613  0.03129456  0.41505518     0.09100
H870        H  0.79393586  0.09713754  0.47411312     0.06600
H871        H  0.85696629  0.03609793  0.06479970     0.06500
N872        N  0.96637911  0.40013424  0.01610439    -0.36200
N873        N  0.52042622  0.45566150  0.00336560    -0.56800
N874        N  0.96369915  0.00351013  0.00619562    -0.36200
N875        N  0.90928913  0.44829372  0.00888518    -0.56800
C876        C  0.99603852  0.38214074  0.00834486     0.27300
C877        C  0.93851137  0.37951198  0.01068567     0.27400
C878        C  0.99137920  0.02392324  0.99942592     0.27300
C879        C  0.93393378  0.02074656  0.99649063     0.27300
C880        C  0.54298612  0.42980501  0.00608128     0.36000
C881        C  0.54031724  0.48329526  0.00663928     0.36000
C882        C  0.88955899  0.42108883  0.01602010     0.36000
C883        C  0.88680151  0.47433574  0.00875644     0.36000
C884        C  0.98690883  0.34948108  0.99940370    -0.21500
C885        C  0.95072003  0.34782159  0.00091114    -0.21500
C886        C  0.97906897  0.05480952  0.98674938    -0.21500
C887        C  0.94291023  0.05286566  0.98495746    -0.21500
C888        C  0.57745187  0.44113985  0.01033596    -0.22600
C889        C  0.57572772  0.47497316  0.01087675    -0.22600
C890        C  0.85428519  0.42985940  0.02012158    -0.22600
C891        C  0.85252243  0.46354317  0.01547825    -0.22600
C892        C  0.53343716  0.39605207  0.00285896    -0.17900
C893        C  0.90233347  0.38817842  0.01470909    -0.17900
C894        C  0.89879967  0.00891613  0.99922737    -0.17900
C895        C  0.52486996  0.01302930  0.99417248    -0.17900
H896        H  0.50703084  0.33049431  0.98711249     0.15000
H897        H  0.93520155  0.32570857  0.99518573     0.15000
H898        H  0.99451526  0.07650990  0.97928573     0.15000
H899        H  0.92535314  0.07305882  0.97626383     0.15000
H900        H  0.60146709  0.42660316  0.01247591     0.13300
H901        H  0.59806806  0.49153251  0.01344683     0.13300
H902        H  0.83201257  0.41360526  0.02484419     0.13300
H903        H  0.82857807  0.47825062  0.01596099     0.13300
H904        H  0.96536440  0.42431202  0.02827176     0.26500
H905        H  0.96222684  0.47924928  0.02176386     0.26500
C906        C  0.55133997  0.03994678  0.99269244     0.03500
C907        C  0.56014609  0.05811417  0.03299734    -0.12700
C908        C  0.58636085  0.08255057  0.03193005     0.01000
C909        C  0.60436474  0.08922967  0.49807167    -0.11200
C910        C  0.59492312  0.07044186  0.45907612     0.03500
C911        C  0.56877995  0.04629580  0.46241037    -0.10600
H912        H  0.54642403  0.05336549  0.06485683     0.09100
H913        H  0.62515766  0.10740544  0.49524250     0.06600
H914        H  0.56133067  0.03169258  0.43223386     0.06500
O915        O  0.68231130  0.23223164  0.34697289    -0.79800
O916        O  0.67014517  0.18032026  0.15894053    -0.79800
O917        O  0.70115740  0.28470835  0.21791244    -0.79800
O918        O  0.69530885  0.12396678  0.29128672    -0.79700
O919        O  0.67894324  0.24207620  0.17746204    -0.79900
O920        O  0.67237556  0.16437528  0.33441514    -0.79800
O921        O  0.66412908  0.14748449  0.21604970    -0.79800
O922        O  0.66370483  0.24984709  0.27904492    -0.79800
C923        C  0.66214072  0.25029324  0.32279517     1.09900
C924        C  0.65414056  0.15680924  0.17644114     1.09800
C925        C  0.68096071  0.27354572  0.18587706     1.09900
C926        C  0.67339471  0.13416746  0.32174615     1.09800
O927        O  0.74669559  0.15505889  0.33553764    -0.79800
O928        O  0.74234135  0.22496656  0.15779758    -0.79800
O929        O  0.73409438  0.26634357  0.30271046    -0.79800
O930        O  0.72653745  0.11543556  0.19976780    -0.79800
O931        O  0.73864844  0.16320825  0.16560288    -0.79800
O932        O  0.75664565  0.22225755  0.33615503    -0.79800
O933        O  0.76389922  0.14894183  0.26385910    -0.79700
O934        O  0.75988154  0.24505792  0.22275934    -0.79800
Co935      Co  0.71416625  0.19381289  0.33413072     1.51500
Co936      Co  0.70819238  0.20066947  0.19364448     1.51700
Co937      Co  0.71049199  0.24416539  0.24910915     1.51600
Co938      Co  0.71463296  0.15171729  0.23951657     1.51500
O939        O  0.71048519  0.19690233  0.26499873    -1.41700
C940        C  0.76740478  0.14238077  0.30618339     1.09900
C941        C  0.76334439  0.24320225  0.17947829     1.09900
C942        C  0.75777612  0.25284253  0.32747246     1.09900
C943        C  0.74223570  0.13141997  0.16826862     1.09900
C944        C  0.60471950  0.08718882  0.11523802    -0.11900
C945        C  0.59570190  0.10278112  0.07361355     0.05100
C946        C  0.59988897  0.13733907  0.07067736    -0.07200
C947        C  0.61536928  0.15495327  0.10733500    -0.07900
C948        C  0.62737556  0.13910393  0.14749757    -0.02500
C949        C  0.62056670  0.10497268  0.15205480     0.04300
N950        N  0.63297827  0.08730027  0.19142983     0.66800
H951        H  0.60179270  0.06066106  0.11801888     0.15700
H952        H  0.62027079  0.18104294  0.10276353     0.15500
N953        N  0.59021093  0.15476250  0.02971809     0.74500
O954        O  0.61381379  0.08553670  0.22666152    -0.38900
O955        O  0.65985316  0.06890278  0.18806265    -0.38800
O956        O  0.55801440  0.15921515  0.01989855    -0.39600
O957        O  0.61348489  0.16982401  0.00736690    -0.39600
C958        C  0.59507515  0.10164674  0.38667283    -0.11900
C959        C  0.61163279  0.07840061  0.41486562     0.05100
C960        C  0.64677655  0.06911818  0.40614073    -0.07200
C961        C  0.66583135  0.08529176  0.37184975    -0.07900
C962        C  0.65020669  0.11079048  0.34609855    -0.02500
C963        C  0.61383798  0.11788080  0.35217356     0.04300
N964        N  0.59591791  0.14225273  0.32487075     0.66800
H965        H  0.56790678  0.10855769  0.39344087     0.15700
H966        H  0.69358604  0.07975215  0.36800101     0.15500
N967        N  0.66405395  0.04522671  0.43452347     0.74500
O968        O  0.60156274  0.14383783  0.28211042    -0.38900
O969        O  0.57055412  0.15858229  0.34174098    -0.38800
O970        O  0.65731618  0.01493502  0.42859693    -0.39600
O971        O  0.68042038  0.05460262  0.47052481    -0.39600
C972        C  0.76234746  0.08045241  0.12556976    -0.11900
C973        C  0.76605532  0.11445147  0.13497829     0.05900
C974        C  0.79193062  0.13236538  0.11070116    -0.07200
C975        C  0.81082189  0.11698167  0.07521762    -0.07900
C976        C  0.80586257  0.08354978  0.06444041    -0.02500
C977        C  0.78232497  0.06487419  0.09085388     0.04300
N978        N  0.77729305  0.03047541  0.08134406     0.66800
H979        H  0.74319723  0.06611872  0.14421047     0.15700
H980        H  0.82983381  0.13120669  0.05612517     0.15500
N981        N  0.80028431  0.16591598  0.12249336     0.74500
O982        O  0.75338369  0.02131995  0.05338351    -0.38900
O983        O  0.79330494  0.00929766  0.10544920    -0.38800
O984        O  0.81974638  0.17196621  0.15721225    -0.39600
O985        O  0.79422194  0.18844526  0.09373293    -0.39600
C986        C  0.84070019  0.10212773  0.37227025    -0.11900
C987        C  0.82092032  0.07738880  0.39339041     0.05100
C988        C  0.78803424  0.06848500  0.37444729    -0.07200
C989        C  0.77299083  0.08765187  0.33959026    -0.07900
C990        C  0.79054800  0.11541957  0.32265482    -0.02500
C991        C  0.82614197  0.12086697  0.33585544     0.04300
N992        N  0.84720057  0.14548663  0.31373891     0.66800
H993        H  0.86669832  0.10795424  0.38598315     0.15700
H994        H  0.74620346  0.08252736  0.32835655     0.15500
N995        N  0.76839638  0.04189205  0.39335092     0.74500
O996        O  0.87719404  0.15311478  0.33002927    -0.38900
O997        O  0.83836735  0.15612222  0.27448181    -0.38800
O998        O  0.74327165  0.04805929  0.42037804    -0.39600
O999        O  0.77937369  0.01255848  0.38862912    -0.39600
C1000       C  0.60741426  0.30157120  0.10733290    -0.11900
C1001       C  0.62346427  0.32796514  0.08524515     0.05100
C1002       C  0.65609452  0.34008450  0.10177529    -0.07200
C1003       C  0.67359111  0.32396177  0.13806884    -0.07900
C1004       C  0.65881310  0.29570689  0.15764605    -0.02500
C1005       C  0.62456430  0.28564675  0.14376557     0.04300
N1006       N  0.60712979  0.25901576  0.16612420     0.66800
H1007       H  0.58189599  0.29271327  0.09531231     0.15700
H1008       H  0.69970821  0.33210899  0.14867221     0.15500
N1009       N  0.67212372  0.36802016  0.08094105     0.74500
O1010       O  0.59880980  0.26193326  0.20807013    -0.38900
O1011       O  0.59581960  0.23468763  0.14269415    -0.38800
O1012       O  0.66951933  0.39641118  0.61324810    -0.39600
O1013       O  0.68032810  0.37150637  0.54755981    -0.39600
C1014       C  0.65341804  0.30714874  0.35423230    -0.11900
C1015       C  0.64027396  0.27485916  0.34799187     0.05100
C1016       C  0.61188603  0.26466809  0.37526350    -0.07200
C1017       C  0.59780219  0.28602697  0.40888156    -0.07900
C1018       C  0.61213422  0.31746254  0.41683525    -0.02500
C1019       C  0.63958589  0.32845704  0.38846867     0.04300
N1020       N  0.65538052  0.36008757  0.39657645     0.66800
H1021       H  0.67605620  0.31502177  0.33465401     0.15700
H1022       H  0.57714746  0.27714020  0.43112856     0.15500
N1023       N  0.59851482  0.23187394  0.37127054     0.74500
O1024       O  0.68492864  0.36210432  0.41696975    -0.38900
O1025       O  0.63829416  0.38610092  0.38755109    -0.38800
O1026       O  0.61233554  0.20929717  0.39516356    -0.39600
O1027       O  0.56854332  0.22735698  0.35289360    -0.39600
C1028       C  0.83980259  0.28825002  0.12214206    -0.11900
C1029       C  0.82084129  0.30545669  0.08788095     0.05100
C1030       C  0.78360785  0.30443379  0.08787036    -0.07200
C1031       C  0.76631380  0.28461270  0.11932109    -0.07900
C1032       C  0.78489764  0.26648749  0.15270381    -0.02500
C1033       C  0.82207918  0.26909040  0.15520351     0.04300
N1034       N  0.84211087  0.25128263  0.18905670     0.66800
H1035       H  0.86840722  0.28881060  0.12214945     0.15700
H1036       H  0.73777506  0.28299965  0.11720136     0.15500
N1037       N  0.76303096  0.32250028  0.05476276     0.74500
O1038       O  0.87078489  0.23734889  0.17812668    -0.38900
O1039       O  0.83327052  0.25247714  0.23093245    -0.38800
O1040       O  0.73970854  0.30796627  0.03062643    -0.39600
O1041       O  0.76780218  0.35312262  0.05002922    -0.39600
C1042       C  0.84020604  0.27741615  0.39420924    -0.11900
C1043       C  0.83156769  0.30994473  0.40669357     0.05100
C1044       C  0.80251338  0.32552795  0.38537061    -0.07200
C1045       C  0.78002584  0.30713416  0.35637148    -0.07900
C1046       C  0.78607691  0.27323336  0.34868523    -0.02500
C1047       C  0.81778870  0.25896670  0.36540552     0.04300
N1048       N  0.82710491  0.22550973  0.35481550     0.66800
H1049       H  0.86269707  0.26534643  0.41032915     0.15700
H1050       H  0.75624747  0.31879229  0.34310405     0.15500
N1051       N  0.79302823  0.35869792  0.39754469     0.74500
O1052       O  0.84834389  0.21976538  0.32240627    -0.38900
O1053       O  0.82115559  0.20326831  0.38382940    -0.38800
O1054       O  0.80176363  0.38205808  0.37168002    -0.39600
O1055       O  0.77129073  0.36400472  0.42954348    -0.39600
C1056       C  0.87779604  0.36089848  0.49993955     0.03500
C1057       C  0.86289801  0.34679573  0.53968363    -0.12700
C1058       C  0.83875708  0.32053697  0.53484817     0.01000
C1059       C  0.82933456  0.30812154  0.00350433    -0.11200
C1060       C  0.84117992  0.32352544  0.96375308     0.03500
C1061       C  0.86440884  0.35017493  0.96769110    -0.10600
H1062       H  0.86938881  0.35666059  0.57366149     0.09100
H1063       H  0.81122626  0.28749673  0.00006263     0.06600
H1064       H  0.87394918  0.36195355  0.93686475     0.06500
C1065       C  0.56425056  0.37219191  0.50395806     0.03500
C1066       C  0.57431899  0.35843629  0.95925539    -0.12700
C1067       C  0.60245952  0.33585175  0.95856775     0.01000
C1068       C  0.61903941  0.32695515  0.00005343    -0.11200
C1069       C  0.60856136  0.33900090  0.54388150     0.03500
C1070       C  0.58096458  0.36223796  0.54514018    -0.10600
H1071       H  0.56120898  0.36522810  0.92730851     0.09100
H1072       H  0.64031837  0.30891110  0.99966109     0.06600
H1073       H  0.57221037  0.37223617  0.57800849     0.06500
C1074       C  0.86831114  0.03195227  0.48958647     0.03500
C1075       C  0.86281194  0.04530838  0.94812675    -0.12700
C1076       C  0.83708325  0.06972665  0.94198716     0.01000
C1077       C  0.81817701  0.08166453  0.98020139    -0.11200
C1078       C  0.82492063  0.06944941  0.52344407     0.03500
C1079       C  0.85204613  0.04601303  0.52853524    -0.10600
H1080       H  0.87737401  0.03590731  0.91868342     0.09100
H1081       H  0.79808893  0.10053275  0.97540045     0.06600
H1082       H  0.86120521  0.03920838  0.56267930     0.06500
N1083       N  0.96750249  0.40136453  0.50424160    -0.36200
N1084       N  0.52059931  0.45598824  0.50401328    -0.56800
N1085       N  0.96226623  0.00306929  0.50254317    -0.36200
N1086       N  0.90967075  0.44875362  0.50128408    -0.56800
C1087       C  0.99746586  0.38418436  0.49504309     0.27300
C1088       C  0.93995110  0.38052497  0.49754389     0.27400
C1089       C  0.98977283  0.02325298  0.49400628     0.27300
C1090       C  0.93242209  0.01945738  0.49052210     0.27300
C1091       C  0.54355658  0.43052159  0.50877929     0.36000
C1092       C  0.53986542  0.48403741  0.50703290     0.36000
C1093       C  0.89040753  0.42107339  0.50717474     0.36000
C1094       C  0.88683521  0.47452560  0.50273721     0.36000
C1095       C  0.98888866  0.35182273  0.48332536    -0.21500
C1096       C  0.95270441  0.34949744  0.48495463    -0.21500
C1097       C  0.97726593  0.05306699  0.47724760    -0.21500
C1098       C  0.94112612  0.05069451  0.47503286    -0.21500
C1099       C  0.57765173  0.44249331  0.51421279    -0.22600
C1100       C  0.57529386  0.47632544  0.51329103    -0.22600
C1101       C  0.85503721  0.42930627  0.51209093    -0.22600
C1102       C  0.85276579  0.46311742  0.50917338    -0.22600
C1103       C  0.53468409  0.39656803  0.50558696    -0.17900
C1104       C  0.90367804  0.38836072  0.50360003    -0.17900
C1105       C  0.89746214  0.00788954  0.49570026    -0.17900
C1106       C  0.52622991  0.01387633  0.50904488    -0.17900
H1107       H  0.50855730  0.33118453  0.48742986     0.15000
H1108       H  0.93760261  0.32732944  0.47779635     0.15000
H1109       H  0.99255769  0.07441058  0.46769390     0.15000
H1110       H  0.92336606  0.07006007  0.46375807     0.15000
H1111       H  0.60183089  0.42836540  0.51794557     0.13300
H1112       H  0.59727361  0.49328453  0.51614206     0.13300
H1113       H  0.83300715  0.41265642  0.51607431     0.13300
H1114       H  0.82865544  0.47754830  0.51070934     0.13300
H1115       H  0.96618995  0.42486232  0.51882488     0.26500
H1116       H  0.96226991  0.47989283  0.51602646     0.26500
C1117       C  0.55252386  0.04074602  0.50505349     0.03500
C1118       C  0.56174058  0.06021588  0.54392879    -0.12700
C1119       C  0.58741917  0.08498029  0.54038215     0.01000
C1120       C  0.60477505  0.08726916  0.99071465    -0.11200
C1121       C  0.59578377  0.06970660  0.95029327     0.03500
C1122       C  0.56866313  0.04642377  0.95111590    -0.10600
H1123       H  0.54902473  0.05602359  0.57666284     0.09100
H1124       H  0.62617074  0.10494617  0.98982543     0.06600
H1125       H  0.56167456  0.03275332  0.91991747     0.06500
O1126       O  0.68763424  0.23335169  0.84836561    -0.79800
O1127       O  0.68435610  0.17983581  0.65938596    -0.79800
O1128       O  0.70763601  0.28700566  0.71589713    -0.79800
O1129       O  0.70206291  0.12564484  0.79176449    -0.79700
O1130       O  0.68002069  0.24244919  0.69040337    -0.79900
O1131       O  0.67849241  0.16517916  0.83629027    -0.79800
O1132       O  0.67240406  0.14916736  0.71733377    -0.79800
O1133       O  0.67142854  0.25504650  0.78181673    -0.79800
C1134       C  0.66866209  0.25293678  0.82514398     1.09900
C1135       C  0.66562735  0.15773840  0.67677235     1.09800
C1136       C  0.68362555  0.27423217  0.69043945     1.09900
C1137       C  0.67977245  0.13524137  0.82205894     1.09800
O1138       O  0.75188860  0.15707662  0.83747056    -0.79800
O1139       O  0.73624072  0.22544330  0.64059009    -0.79800
O1140       O  0.74383241  0.26728933  0.79547286    -0.79800
O1141       O  0.73533686  0.11912569  0.70191937    -0.79800
O1142       O  0.75641690  0.16859591  0.68241973    -0.79800
O1143       O  0.76186205  0.22406470  0.83513932    -0.79800
O1144       O  0.77059389  0.15375233  0.76707500    -0.79700
O1145       O  0.76064710  0.24240948  0.70624364    -0.79800
Co1146     Co  0.71946653  0.19550411  0.83426146     1.51500
Co1147     Co  0.71930227  0.20641133  0.69513838     1.51700
Co1148     Co  0.71517345  0.24536483  0.74592786     1.51600
Co1149     Co  0.72121730  0.15412605  0.74122054     1.51500
O1150       O  0.71140129  0.19741205  0.76461525    -1.41700
C1151       C  0.77380155  0.14608005  0.80878651     1.09900
C1152       C  0.75946374  0.24278213  0.66150502     1.09900
C1153       C  0.76433119  0.25426795  0.82493648     1.09900
C1154       C  0.75460851  0.13659055  0.67583928     1.09900
C1155       C  0.61038826  0.08965767  0.62116638    -0.11900
C1156       C  0.59888213  0.10536977  0.58079176     0.05100
C1157       C  0.60450874  0.13967870  0.57639043    -0.07200
C1158       C  0.62477435  0.15666725  0.60950435    -0.07900
C1159       C  0.63860125  0.14051271  0.64822480    -0.02500
C1160       C  0.63014018  0.10686694  0.65488880     0.04300
N1161       N  0.64498487  0.08874015  0.69248667     0.66800
H1162       H  0.60661958  0.06328421  0.62480529     0.15700
H1163       H  0.63069765  0.18248523  0.60408537     0.15500
N1164       N  0.59072760  0.15733006  0.53760405     0.74500
O1165       O  0.62585379  0.08144440  0.72620867    -0.38900
O1166       O  0.67441355  0.07442746  0.68761988    -0.38800
O1167       O  0.55779204  0.15879978  0.53074284    -0.39600
O1168       O  0.61105613  0.17418238  0.51302103    -0.39600
C1169       C  0.59883162  0.09972649  0.87660538    -0.11900
C1170       C  0.61444980  0.07748432  0.90737081     0.05100
C1171       C  0.65027144  0.06887893  0.90228318    -0.07200
C1172       C  0.67118532  0.08619341  0.87116029    -0.07900
C1173       C  0.65633725  0.11123864  0.84404502    -0.02500
C1174       C  0.61946859  0.11623863  0.84444836     0.04300
N1175       N  0.60283557  0.13854806  0.81310824     0.66800
H1176       H  0.57107165  0.10594916  0.87964597     0.15700
H1177       H  0.69930568  0.08150988  0.87016962     0.15500
N1178       N  0.66583334  0.04378274  0.93029522     0.74500
O1179       O  0.58606447  0.12724573  0.77855819    -0.38900
O1180       O  0.59869890  0.16839463  0.82469964    -0.38800
O1181       O  0.65684030  0.01400750  0.92434603    -0.39600
O1182       O  0.68549956  0.05166540  0.96407587    -0.39600
C1183       C  0.78069014  0.08543780  0.63983265    -0.11900
C1184       C  0.77611794  0.12000736  0.63926632     0.05900
C1185       C  0.78952729  0.13751192  0.60133284    -0.07200
C1186       C  0.80566858  0.12050783  0.56482957    -0.07900
C1187       C  0.80881607  0.08599432  0.56443072    -0.02500
C1188       C  0.79668411  0.06836444  0.60291182     0.04300
N1189       N  0.79852687  0.03305489  0.60393675     0.66800
H1190       H  0.77064113  0.07132426  0.66833957     0.15700
H1191       H  0.81556535  0.13456143  0.53614763     0.15500
N1192       N  0.78569342  0.17247002  0.59783708     0.74500
O1193       O  0.77978340  0.01602032  0.57637931    -0.38900
O1194       O  0.81569792  0.01894023  0.63568292    -0.38800
O1195       O  0.81076386  0.19071450  0.61140936    -0.39600
O1196       O  0.76289011  0.18392384  0.57021382    -0.39600
C1197       C  0.84706367  0.10793738  0.87653062    -0.11900
C1198       C  0.82791121  0.08197317  0.89565843     0.05100
C1199       C  0.79629151  0.07170643  0.87449229    -0.07200
C1200       C  0.78112635  0.09094612  0.83985923    -0.07900
C1201       C  0.79782594  0.11970010  0.82467681    -0.02500
C1202       C  0.83282162  0.12635895  0.83961266     0.04300
N1203       N  0.85360390  0.15167997  0.81855490     0.66800
H1204       H  0.87224330  0.11474287  0.89192578     0.15700
H1205       H  0.75478192  0.08498090  0.82749219     0.15500
N1206       N  0.77798627  0.04340163  0.89088729     0.74500
O1207       O  0.88368075  0.15899133  0.83488762    -0.38900
O1208       O  0.84455705  0.16320582  0.77988548    -0.38800
O1209       O  0.74900219  0.04697277  0.91141867    -0.39600
O1210       O  0.79273646  0.01537047  0.88976747    -0.39600
C1211       C  0.61059326  0.29793692  0.60646208    -0.11900
C1212       C  0.62479503  0.32626436  0.58678809     0.05100
C1213       C  0.65545194  0.34048706  0.60637955    -0.07200
C1214       C  0.67298449  0.32465940  0.64303631    -0.07900
C1215       C  0.66024842  0.29474255  0.66058586    -0.02500
C1216       C  0.62747105  0.28245983  0.64379312     0.04300
N1217       N  0.61081141  0.25463056  0.66459510     0.66800
H1218       H  0.58630600  0.28767940  0.59237491     0.15700
H1219       H  0.69778853  0.33469435  0.65575297     0.15500
N1220       N  0.66950979  0.37045497  0.58858073     0.74500
O1221       O  0.60775843  0.25366298  0.70792543    -0.38900
O1222       O  0.59477389  0.23352266  0.63976986    -0.38800
O1223       O  0.66855502  0.39631369  0.09920329    -0.39600
O1224       O  0.68585292  0.36519659  0.04156833    -0.39600
C1225       C  0.65527985  0.30931658  0.85462117    -0.11900
C1226       C  0.64541730  0.27589110  0.85088732     0.05100
C1227       C  0.61759223  0.26433600  0.87834360    -0.07200
C1228       C  0.60118424  0.28575280  0.90984170    -0.07900
C1229       C  0.61277389  0.31826862  0.91589840    -0.02500
C1230       C  0.63929015  0.33050693  0.88716757     0.04300
N1231       N  0.65205885  0.36349086  0.89337709     0.66800
H1232       H  0.67705320  0.31839402  0.83442147     0.15700
H1233       H  0.58121748  0.27612865  0.93256114     0.15500
N1234       N  0.60694954  0.23052944  0.87699220     0.74500
O1235       O  0.68167268  0.36844634  0.91258177    -0.38900
O1236       O  0.63237266  0.38773705  0.88374192    -0.38800
O1237       O  0.62728699  0.20889699  0.89375022    -0.39600
O1238       O  0.57460879  0.22389749  0.87150851    -0.39600
C1239       C  0.83637362  0.29068766  0.61037004    -0.11900
C1240       C  0.81870158  0.30657243  0.57383795     0.05100
C1241       C  0.78159780  0.30338923  0.56966905    -0.07200
C1242       C  0.76360352  0.28247379  0.59899778    -0.07900
C1243       C  0.78118148  0.26551927  0.63428912    -0.02500
C1244       C  0.81771757  0.27067938  0.64126444     0.04300
N1245       N  0.83647027  0.25433237  0.67750800     0.66800
H1246       H  0.86481730  0.29267636  0.61370731     0.15700
H1247       H  0.73529929  0.27967126  0.59434825     0.15500
N1248       N  0.76195679  0.32054613  0.53471052     0.74500
O1249       O  0.85926095  0.23255006  0.66775653    -0.38900
O1250       O  0.83481321  0.26562199  0.71826206    -0.38800
O1251       O  0.73954998  0.30531295  0.50990763    -0.39600
O1252       O  0.76502821  0.35143680  0.53097243    -0.39600
C1253       C  0.83909476  0.27872233  0.90571340    -0.11900
C1254       C  0.82852462  0.31058886  0.91882175     0.05100
C1255       C  0.80085868  0.32617260  0.89445664    -0.07200
C1256       C  0.78197801  0.30839010  0.86041103    -0.07900
C1257       C  0.79012745  0.27504557  0.85086783    -0.02500
C1258       C  0.82027676  0.26095532  0.87204172     0.04300
N1259       N  0.83182625  0.22835465  0.86036127     0.66800
H1260       H  0.86071326  0.26676164  0.92389440     0.15700
H1261       H  0.75907066  0.31981422  0.84440719     0.15500
N1262       N  0.78937307  0.35869530  0.90718507     0.74500
O1263       O  0.85504825  0.22473860  0.82979397    -0.38900
O1264       O  0.82562744  0.20495057  0.88744280    -0.38800
O1265       O  0.79582424  0.38264331  0.88117975    -0.39600
O1266       O  0.76860857  0.36270098  0.94060980    -0.39600
C1267       C  0.87875697  0.86199923  0.00092920     0.03500
C1268       C  0.86356380  0.84754174  0.04019644    -0.12700
C1269       C  0.84016732  0.82077268  0.03463221     0.01000
C1270       C  0.82973716  0.81112731  0.49276179    -0.11200
C1271       C  0.84389538  0.82596613  0.45405782     0.03500
C1272       C  0.86841773  0.85142147  0.45954676    -0.10600
H1273       H  0.86930959  0.85747826  0.07435766     0.09100
H1274       H  0.81097781  0.79114052  0.48787327     0.06600
H1275       H  0.87948015  0.86293490  0.42941680     0.06500
C1276       C  0.55968574  0.86837063  0.00165587     0.03500
C1277       C  0.57222061  0.85673578  0.46356214    -0.12700
C1278       C  0.60037326  0.83424914  0.46138245     0.01000
C1279       C  0.61723973  0.82427845  0.50221742    -0.11200
C1280       C  0.60463845  0.83834605  0.04463403     0.03500
C1281       C  0.57660915  0.86100578  0.04372073    -0.10600
H1282       H  0.55887067  0.86428928  0.43212574     0.09100
H1283       H  0.63859976  0.80635572  0.50065142     0.06600
H1284       H  0.56791487  0.87277765  0.07548755     0.06500
C1285       C  0.86737146  0.53168144  0.99230077     0.03500
C1286       C  0.85849280  0.54439483  0.44530103    -0.12700
C1287       C  0.83435982  0.57041716  0.44047998     0.01000
C1288       C  0.81810427  0.58402401  0.47975783    -0.11200
C1289       C  0.82384210  0.56974980  0.02468510     0.03500
C1290       C  0.85021547  0.54565884  0.03070484    -0.10600
H1291       H  0.87135893  0.53406713  0.41508654     0.09100
H1292       H  0.79923611  0.60407816  0.47604884     0.06600
H1293       H  0.85815680  0.53840286  0.06516205     0.06500
N1294       N  0.96883301  0.90169829  0.00568136    -0.36200
N1295       N  0.51786897  0.95267284  0.99783181    -0.56800
N1296       N  0.96108621  0.50151506  0.00459061    -0.36200
N1297       N  0.91179685  0.94954493  0.00487722    -0.56800
C1298       C  0.99854109  0.88418346  0.99652513     0.27300
C1299       C  0.94106799  0.88098125  0.99994397     0.27400
C1300       C  0.98888786  0.52116265  0.99524492     0.27300
C1301       C  0.93137558  0.51848028  0.99361656     0.27300
C1302       C  0.54018846  0.92657960  0.99496838     0.36000
C1303       C  0.53767327  0.98006701  0.99261387     0.36000
C1304       C  0.89201038  0.92202252  0.00929328     0.36000
C1305       C  0.88929756  0.97553121  0.00611059     0.36000
C1306       C  0.98958096  0.85167864  0.98611521    -0.21500
C1307       C  0.95344853  0.84966075  0.98828807    -0.21500
C1308       C  0.97673432  0.55128361  0.97915862    -0.21500
C1309       C  0.94051238  0.54964402  0.97818926    -0.21500
C1310       C  0.57445073  0.93746235  0.98870085    -0.22600
C1311       C  0.57290994  0.97126815  0.98752000    -0.22600
C1312       C  0.85666980  0.93056290  0.01316380    -0.22600
C1313       C  0.85492193  0.96439678  0.01098612    -0.22600
C1314       C  0.53070357  0.89312688  0.00064573    -0.17900
C1315       C  0.90487134  0.88921600  0.00548356    -0.17900
C1316       C  0.89621445  0.50733298  0.99903029    -0.17900
C1317       C  0.52738606  0.51598624  0.00309072    -0.17900
H1318       H  0.50483406  0.83025581  0.02902160     0.15000
H1319       H  0.93813495  0.82749172  0.98204416     0.15000
H1320       H  0.99231807  0.57235246  0.96924660     0.15000
H1321       H  0.92302192  0.56941687  0.96760756     0.15000
H1322       H  0.59823666  0.92264303  0.98601319     0.13300
H1323       H  0.59536357  0.98741910  0.98372908     0.13300
H1324       H  0.83433710  0.91411393  0.01588864     0.13300
H1325       H  0.83091317  0.97899650  0.01185288     0.13300
H1326       H  0.96789586  0.92544264  0.01934700     0.26500
H1327       H  0.96486926  0.98021255  0.02047863     0.26500
C1328       C  0.55343567  0.54302432  0.99954594     0.03500
C1329       C  0.56173125  0.56306207  0.03824362    -0.12700
C1330       C  0.58641974  0.58874369  0.03462038     0.01000
C1331       C  0.60243071  0.59393701  0.49145412    -0.11200
C1332       C  0.59385253  0.57469766  0.45245453     0.03500
C1333       C  0.56868514  0.54970397  0.45560811    -0.10600
H1334       H  0.54911665  0.55854658  0.07095264     0.09100
H1335       H  0.62285081  0.61249050  0.48880367     0.06600
H1336       H  0.56212733  0.53467481  0.42548360     0.06500
O1337       O  0.68600518  0.73602957  0.34693267    -0.79800
O1338       O  0.68217326  0.68242472  0.15746280    -0.79800
O1339       O  0.70652632  0.78912276  0.21493928    -0.79800
O1340       O  0.69833766  0.62806606  0.29028770    -0.79700
O1341       O  0.67841714  0.74488660  0.18890503    -0.79900
O1342       O  0.67588727  0.66794744  0.33531281    -0.79800
O1343       O  0.66924015  0.65178701  0.21507379    -0.79800
O1344       O  0.66921824  0.75729754  0.28034144    -0.79800
C1345       C  0.66669887  0.75535243  0.32375836     1.09900
C1346       C  0.66298167  0.66050897  0.17438781     1.09800
C1347       C  0.68245920  0.77662409  0.18942861     1.09900
C1348       C  0.67647896  0.63800631  0.32091930     1.09800
O1349       O  0.74905684  0.65897349  0.33632764    -0.79800
O1350       O  0.73482479  0.72709017  0.13943347    -0.79800
O1351       O  0.74148488  0.76919046  0.29388530    -0.79800
O1352       O  0.73179378  0.62088028  0.20061694    -0.79800
O1353       O  0.75387994  0.66996840  0.18122301    -0.79800
O1354       O  0.76021689  0.72607623  0.33314932    -0.79800
O1355       O  0.76738681  0.65501926  0.26584231    -0.79700
O1356       O  0.75886965  0.74417195  0.20522382    -0.79800
Co1357     Co  0.71732158  0.69782866  0.33283801     1.51500
Co1358     Co  0.71728778  0.70835803  0.19380663     1.51700
Co1359     Co  0.71308998  0.74734705  0.24452101     1.51600
Co1360     Co  0.71804186  0.65611407  0.23968052     1.51500
O1361       O  0.70885403  0.69948873  0.26318876    -1.41700
C1362       C  0.77060737  0.64746938  0.30759946     1.09900
C1363       C  0.75807146  0.74433910  0.16045018     1.09900
C1364       C  0.76267253  0.75621983  0.32239146     1.09900
C1365       C  0.75173049  0.63793989  0.17486528     1.09900
C1366       C  0.60947866  0.59265697  0.11544424    -0.11900
C1367       C  0.59785355  0.60886008  0.07548555     0.05100
C1368       C  0.60298143  0.64336215  0.07233502    -0.07200
C1369       C  0.62234990  0.66017117  0.10667665    -0.07900
C1370       C  0.63622126  0.64352718  0.14501299    -0.02500
C1371       C  0.62862202  0.60956079  0.15005852     0.04300
N1372       N  0.64399066  0.59087537  0.18675188     0.66800
H1373       H  0.60627648  0.56614675  0.11811653     0.15700
H1374       H  0.62760293  0.68626963  0.10252262     0.15500
N1375       N  0.58955887  0.66147415  0.03375716     0.74500
O1376       O  0.62560241  0.58387801  0.22129599    -0.38900
O1377       O  0.67260337  0.57552732  0.18006141    -0.38800
O1378       O  0.55673795  0.66243454  0.02581325    -0.39600
O1379       O  0.60994972  0.67936906  0.01073367    -0.39600
C1380       C  0.59604233  0.60414840  0.37850594    -0.11900
C1381       C  0.61181198  0.58179337  0.40887656     0.05100
C1382       C  0.64747171  0.57288237  0.40317137    -0.07200
C1383       C  0.66803188  0.58954659  0.37097787    -0.07900
C1384       C  0.65297940  0.61425961  0.34339314    -0.02500
C1385       C  0.61620808  0.61996840  0.34515462     0.04300
N1386       N  0.59923165  0.64245467  0.31427064     0.66800
H1387       H  0.56843168  0.61068937  0.38243369     0.15700
H1388       H  0.69614625  0.58472477  0.36969830     0.15500
N1389       N  0.66345876  0.54871627  0.43238425     0.74500
O1390       O  0.59664960  0.63490531  0.27199262    -0.38900
O1391       O  0.57973916  0.66507635  0.33026976    -0.38800
O1392       O  0.65216933  0.51939977  0.43156123    -0.39600
O1393       O  0.68520690  0.55760667  0.46337532    -0.39600
C1394       C  0.77438451  0.58594387  0.13708238    -0.11900
C1395       C  0.77354513  0.62078686  0.13896580     0.05900
C1396       C  0.79110894  0.63822382  0.10394659    -0.07200
C1397       C  0.80740982  0.62102326  0.06765638    -0.07900
C1398       C  0.80716555  0.58643525  0.06508537    -0.02500
C1399       C  0.79100095  0.56877258  0.10075371     0.04300
N1400       N  0.78947342  0.53347942  0.09925367     0.66800
H1401       H  0.76117415  0.57178884  0.16322343     0.15700
H1402       H  0.82040907  0.63494680  0.04105657     0.15500
N1403       N  0.79226984  0.67345531  0.10379263     0.74500
O1404       O  0.76613017  0.51926099  0.07483390    -0.38900
O1405       O  0.80759714  0.51688124  0.12753977    -0.38800
O1406       O  0.81777079  0.68787424  0.12373095    -0.39600
O1407       O  0.77427843  0.68886029  0.07407714    -0.39600
C1408       C  0.84369152  0.60910171  0.37545538    -0.11900
C1409       C  0.82456575  0.58313256  0.39460381     0.05100
C1410       C  0.79279924  0.57305113  0.37362977    -0.07200
C1411       C  0.77760982  0.59232022  0.33903406    -0.07900
C1412       C  0.79442121  0.62095832  0.32367065    -0.02500
C1413       C  0.82943194  0.62750854  0.33855777     0.04300
N1414       N  0.85027989  0.65259746  0.31717365     0.66800
H1415       H  0.86900602  0.61575865  0.39059197     0.15700
H1416       H  0.75119151  0.58647388  0.32683234     0.15500
N1417       N  0.77434061  0.54491652  0.39011280     0.74500
O1418       O  0.87972512  0.66095106  0.33450480    -0.38900
O1419       O  0.84213003  0.66268717  0.27738904    -0.38800
O1420       O  0.74851388  0.54888042  0.41674983    -0.39600
O1421       O  0.78684730  0.51630770  0.38343595    -0.39600
C1422       C  0.60585470  0.80316876  0.11369595    -0.11900
C1423       C  0.62154273  0.82823955  0.08829125     0.05100
C1424       C  0.65544373  0.83956747  0.10090106    -0.07200
C1425       C  0.67411097  0.82425358  0.13687614    -0.07900
C1426       C  0.65937118  0.79750060  0.16028442    -0.02500
C1427       C  0.62430269  0.78796786  0.14984484     0.04300
N1428       N  0.60729111  0.76265737  0.17540075     0.66800
H1429       H  0.57963081  0.79457791  0.10430685     0.15700
H1430       H  0.70101631  0.83182193  0.14438094     0.15500
N1431       N  0.67172787  0.86555900  0.07598376     0.74500
O1432       O  0.60134595  0.76707989  0.21784150    -0.38900
O1433       O  0.59487991  0.73753725  0.15475849    -0.38800
O1434       O  0.66928956  0.89355171  0.60215922    -0.39600
O1435       O  0.68237159  0.86360650  0.54144980    -0.39600
C1436       C  0.65369491  0.81099336  0.35633374    -0.11900
C1437       C  0.64322415  0.77791992  0.34985159     0.05100
C1438       C  0.61479716  0.76584209  0.37577210    -0.07200
C1439       C  0.59852486  0.78624967  0.40867275    -0.07900
C1440       C  0.61068623  0.81827068  0.41747477    -0.02500
C1441       C  0.63765127  0.83125923  0.39003917     0.04300
N1442       N  0.65058465  0.86401844  0.39845242     0.66800
H1443       H  0.67585508  0.82044555  0.33721171     0.15700
H1444       H  0.57813829  0.77607630  0.43026190     0.15500
N1445       N  0.60323145  0.73241111  0.37126260     0.74500
O1446       O  0.68268462  0.86855896  0.40874793    -0.38900
O1447       O  0.62979125  0.88844677  0.39654353    -0.38800
O1448       O  0.62298493  0.70948440  0.38567994    -0.39600
O1449       O  0.57068722  0.72689515  0.36548195    -0.39600
C1450       C  0.83558043  0.79320331  0.11200183    -0.11900
C1451       C  0.81907642  0.80695660  0.07288192     0.05100
C1452       C  0.78230546  0.80246907  0.06628457    -0.07200
C1453       C  0.76387906  0.78174017  0.09541623    -0.07900
C1454       C  0.78042024  0.76654471  0.13308048    -0.02500
C1455       C  0.81626401  0.77361301  0.14278457     0.04300
N1456       N  0.83364245  0.76017775  0.18238499     0.66800
H1457       H  0.86367429  0.79657864  0.11764687     0.15700
H1458       H  0.73591418  0.77793165  0.08892401     0.15500
N1459       N  0.76345103  0.81826217  0.02929205     0.74500
O1460       O  0.85387105  0.73552023  0.17776518    -0.38900
O1461       O  0.83440838  0.77670863  0.21964039    -0.38800
O1462       O  0.74077417  0.80240676  0.00572256    -0.39600
O1463       O  0.76820365  0.84853323  0.02150832    -0.39600
C1464       C  0.84157147  0.78202291  0.39520068    -0.11900
C1465       C  0.83139064  0.81392438  0.40872723     0.05100
C1466       C  0.80212834  0.82894696  0.38703206    -0.07200
C1467       C  0.78138336  0.81057816  0.35568517    -0.07900
C1468       C  0.78939305  0.77723856  0.34602346    -0.02500
C1469       C  0.82091124  0.76369563  0.36406589     0.04300
N1470       N  0.83186950  0.73103395  0.35194270     0.66800
H1471       H  0.86412282  0.77033544  0.41172816     0.15700
H1472       H  0.75743985  0.82162045  0.34188912     0.15500
N1473       N  0.79098588  0.86144183  0.40040733     0.74500
O1474       O  0.84923102  0.72654436  0.31545565    -0.38900
O1475       O  0.83090881  0.70859249  0.38173181    -0.38800
O1476       O  0.80087169  0.88597641  0.37751775    -0.39600
O1477       O  0.76733619  0.86513782  0.43042410    -0.39600
C1478       C  0.87889807  0.86182299  0.50417438     0.03500
C1479       C  0.86341454  0.84744427  0.54329028    -0.12700
C1480       C  0.83796854  0.82239529  0.53740756     0.01000
C1481       C  0.83403750  0.80780035  0.99026324    -0.11200
C1482       C  0.84727692  0.82304931  0.95126773     0.03500
C1483       C  0.86953172  0.85030426  0.95643585    -0.10600
H1484       H  0.87041325  0.85627536  0.57764153     0.09100
H1485       H  0.81682185  0.78659669  0.98571920     0.06600
H1486       H  0.88015931  0.86199069  0.92616824     0.06500
C1487       C  0.56110013  0.86925161  0.50651488     0.03500
C1488       C  0.57072777  0.85272400  0.96050633    -0.12700
C1489       C  0.59851612  0.82964939  0.96152840     0.01000
C1490       C  0.61546575  0.82294998  0.00365581    -0.11200
C1491       C  0.60616976  0.83655144  0.54513593     0.03500
C1492       C  0.57800911  0.85903546  0.54729911    -0.10600
H1493       H  0.55733371  0.85802847  0.92818776     0.09100
H1494       H  0.63677622  0.80495313  0.00477049     0.06600
H1495       H  0.56929326  0.86857146  0.58044629     0.06500
C1496       C  0.86687377  0.53235525  0.48937982     0.03500
C1497       C  0.85828661  0.54185279  0.94757426    -0.12700
C1498       C  0.83241839  0.56611941  0.94121254     0.01000
C1499       C  0.81509677  0.57978517  0.97968885    -0.11200
C1500       C  0.82574385  0.57166126  0.52370827     0.03500
C1501       C  0.85018674  0.54579775  0.52844732    -0.10600
H1502       H  0.87176111  0.53130710  0.91796423     0.09100
H1503       H  0.79502596  0.59861687  0.97455207     0.06600
H1504       H  0.85690719  0.53673899  0.56248744     0.06500
N1505       N  0.96904604  0.90167233  0.51051827    -0.36200
N1506       N  0.51932176  0.95352162  0.50998785    -0.56800
N1507       N  0.96080672  0.50294886  0.50103733    -0.36200
N1508       N  0.91138846  0.94905236  0.50479066    -0.56800
C1509       C  0.99902219  0.88434645  0.50185270     0.27300
C1510       C  0.94145088  0.88084999  0.50379430     0.27400
C1511       C  0.98827000  0.52349969  0.49368917     0.27300
C1512       C  0.93084058  0.51986376  0.49118524     0.27300
C1513       C  0.54192668  0.92763544  0.50868348     0.36000
C1514       C  0.53929059  0.98110401  0.51067195     0.36000
C1515       C  0.89212457  0.92162115  0.51224644     0.36000
C1516       C  0.88861440  0.97485073  0.50575369     0.36000
C1517       C  0.99034947  0.85187871  0.49075073    -0.21500
C1518       C  0.95413808  0.84968593  0.49196895    -0.21500
C1519       C  0.97562807  0.55409771  0.48023741    -0.21500
C1520       C  0.93949153  0.55187014  0.47872766    -0.21500
C1521       C  0.57650202  0.93883969  0.50889354    -0.22600
C1522       C  0.57483713  0.97265342  0.51044123    -0.22600
C1523       C  0.85686372  0.93003454  0.51780295    -0.22600
C1524       C  0.85463345  0.96372279  0.51364085    -0.22600
C1525       C  0.53220335  0.89394152  0.50852417    -0.17900
C1526       C  0.90515840  0.88887931  0.50897584    -0.17900
C1527       C  0.89581459  0.50794174  0.49500747    -0.17900
C1528       C  0.52650276  0.51649096  0.50131995    -0.17900
H1529       H  0.50617064  0.82872628  0.52319912     0.15000
H1530       H  0.93893971  0.82754862  0.48496641     0.15000
H1531       H  0.99083926  0.57584993  0.47229914     0.15000
H1532       H  0.92173957  0.57184958  0.46975883     0.15000
H1533       H  0.60050748  0.92421182  0.50826055     0.13300
H1534       H  0.59731358  0.98910228  0.51072378     0.13300
H1535       H  0.83484551  0.91355392  0.52292314     0.13300
H1536       H  0.83056095  0.97820521  0.51506385     0.13300
H1537       H  0.96769102  0.92538536  0.52443239     0.26500
H1538       H  0.96358971  0.98093889  0.52010935     0.26500
C1539       C  0.55233832  0.54379116  0.49798534     0.03500
C1540       C  0.56070487  0.56356206  0.53696193    -0.12700
C1541       C  0.58569673  0.58905808  0.53379369     0.01000
C1542       C  0.60293141  0.59355125  0.99210659    -0.11200
C1543       C  0.59439045  0.57398892  0.95336433     0.03500
C1544       C  0.56956207  0.54878529  0.95700354    -0.10600
H1545       H  0.54800393  0.55890705  0.56956867     0.09100
H1546       H  0.62314923  0.61227032  0.98914106     0.06600
H1547       H  0.56303886  0.53351484  0.92710093     0.06500
O1548       O  0.69031965  0.73366567  0.84735618    -0.79800
O1549       O  0.68419463  0.67965230  0.65710543    -0.79800
O1550       O  0.70625970  0.78636108  0.71709737    -0.79800
O1551       O  0.69839937  0.62572065  0.79040826    -0.79700
O1552       O  0.68031508  0.74165082  0.68864782    -0.79900
O1553       O  0.67895733  0.66604349  0.83731576    -0.79800
O1554       O  0.66951427  0.65007921  0.71501452    -0.79800
O1555       O  0.66926418  0.75258074  0.78159330    -0.79800
C1556       C  0.66792091  0.75053338  0.82513135     1.09900
C1557       C  0.66388269  0.65866929  0.67410373     1.09800
C1558       C  0.68322614  0.77348934  0.69033679     1.09900
C1559       C  0.67793332  0.63630383  0.82228624     1.09800
O1560       O  0.75114727  0.65541682  0.83611841    -0.79800
O1561       O  0.73743606  0.72408377  0.63992747    -0.79800
O1562       O  0.74202090  0.76599826  0.79544546    -0.79800
O1563       O  0.73136275  0.61776197  0.70015486    -0.79800
O1564       O  0.75535235  0.66648051  0.68204201    -0.79800
O1565       O  0.76397275  0.72219625  0.82974484    -0.79800
O1566       O  0.76804758  0.65060882  0.76528447    -0.79700
O1567       O  0.75937752  0.74220713  0.70655663    -0.79800
Co1568     Co  0.72066360  0.69495305  0.83253096     1.51500
Co1569     Co  0.71932071  0.70521357  0.69407354     1.51700
Co1570     Co  0.71348939  0.74433561  0.74562570     1.51600
Co1571     Co  0.71850327  0.65308872  0.73949458     1.51500
O1572       O  0.71040438  0.69639667  0.76338329    -1.41700
C1573       C  0.77159149  0.64297068  0.80691657     1.09900
C1574       C  0.75936005  0.74231615  0.66180182     1.09900
C1575       C  0.76520813  0.75270367  0.82099381     1.09900
C1576       C  0.75251312  0.63450009  0.67559274     1.09900
C1577       C  0.60841501  0.59235531  0.61493896    -0.11900
C1578       C  0.59737283  0.60882815  0.57491339     0.05100
C1579       C  0.60334054  0.64322329  0.57194433    -0.07200
C1580       C  0.62342927  0.65947701  0.60611094    -0.07900
C1581       C  0.63655787  0.64253572  0.64462287    -0.02500
C1582       C  0.62762050  0.60890439  0.64985429     0.04300
N1583       N  0.64117366  0.59025990  0.68771508     0.66800
H1584       H  0.60434536  0.56596222  0.61770973     0.15700
H1585       H  0.62962181  0.68537386  0.60184815     0.15500
N1586       N  0.58972476  0.66180985  0.53393535     0.74500
O1587       O  0.62364985  0.58842031  0.72439007    -0.38900
O1588       O  0.66811868  0.57220295  0.68234314    -0.38800
O1589       O  0.55676667  0.66445290  0.52804005    -0.39600
O1590       O  0.61022545  0.67905695  0.51013719    -0.39600
C1591       C  0.59669845  0.60231566  0.87832400    -0.11900
C1592       C  0.61244959  0.58060170  0.90972803     0.05100
C1593       C  0.64826113  0.57204971  0.90501486    -0.07200
C1594       C  0.66906403  0.58886224  0.87339775    -0.07900
C1595       C  0.65417745  0.61342238  0.84551755    -0.02500
C1596       C  0.61727023  0.61869791  0.84588268     0.04300
N1597       N  0.60037134  0.64064423  0.81400129     0.66800
H1598       H  0.56894202  0.60853808  0.88142267     0.15700
H1599       H  0.69721099  0.58423765  0.87263351     0.15500
N1600       N  0.66406612  0.54797605  0.93452496     0.74500
O1601       O  0.57506455  0.63034315  0.78908909    -0.38900
O1602       O  0.60811417  0.67093566  0.81381662    -0.38800
O1603       O  0.65459655  0.51814933  0.93130881    -0.39600
O1604       O  0.68406289  0.55707060  0.96738214    -0.39600
C1605       C  0.76456935  0.58543738  0.62495500    -0.11900
C1606       C  0.77468323  0.61716495  0.64059816     0.05900
C1607       C  0.80348059  0.63273834  0.61904836    -0.07200
C1608       C  0.81983228  0.61745813  0.58108598    -0.07900
C1609       C  0.80867365  0.58646903  0.56469611    -0.02500
C1610       C  0.78122659  0.57014117  0.58727580     0.04300
N1611       N  0.76872813  0.53883862  0.57062492     0.66800
H1612       H  0.74248347  0.57300810  0.64055055     0.15700
H1613       H  0.84153546  0.62976826  0.56440830     0.15500
N1614       N  0.81688655  0.66373327  0.63561587     0.74500
O1615       O  0.75012443  0.53724117  0.53425783    -0.38900
O1616       O  0.77332381  0.51331394  0.59453042    -0.38800
O1617       O  0.83401916  0.66499144  0.67320524    -0.39600
O1618       O  0.81672130  0.68840951  0.60944555    -0.39600
C1619       C  0.84322045  0.60335090  0.87515297    -0.11900
C1620       C  0.82327280  0.57808940  0.89468083     0.05100
C1621       C  0.79145704  0.56840193  0.87343571    -0.07200
C1622       C  0.77702171  0.58763509  0.83819840    -0.07900
C1623       C  0.79463955  0.61580336  0.82261685    -0.02500
C1624       C  0.82966571  0.62174130  0.83785162     0.04300
N1625       N  0.85109744  0.64649273  0.81669671     0.66800
H1626       H  0.86855239  0.60967255  0.89052677     0.15700
H1627       H  0.75057108  0.58223465  0.82569419     0.15500
N1628       N  0.77244780  0.54055443  0.88987641     0.74500
O1629       O  0.88044749  0.65460207  0.83452552    -0.38900
O1630       O  0.84347645  0.65657335  0.77674614    -0.38800
O1631       O  0.74429841  0.54482573  0.91205432    -0.39600
O1632       O  0.78563480  0.51194282  0.88633948    -0.39600
C1633       C  0.60830076  0.79775300  0.61041849    -0.11900
C1634       C  0.62337884  0.82434414  0.58748690     0.05100
C1635       C  0.65572488  0.83745599  0.60341451    -0.07200
C1636       C  0.67380459  0.82227732  0.64002407    -0.07900
C1637       C  0.65996242  0.79402166  0.66087342    -0.02500
C1638       C  0.62597573  0.78284381  0.64749484     0.04300
N1639       N  0.60902218  0.75669263  0.67163221     0.66800
H1640       H  0.58286103  0.78832238  0.59903217     0.15700
H1641       H  0.69971206  0.83129979  0.65009989     0.15500
N1642       N  0.67073163  0.86572080  0.58205341     0.74500
O1643       O  0.60579687  0.75861665  0.71492762    -0.38900
O1644       O  0.59355545  0.73380265  0.64947338    -0.38800
O1645       O  0.66765825  0.89517906  0.08913233    -0.39600
O1646       O  0.68686719  0.85931671  0.03823634    -0.39600
C1647       C  0.63951958  0.80434353  0.84677924    -0.11900
C1648       C  0.64200460  0.76988990  0.85254025     0.05100
C1649       C  0.62474478  0.75549248  0.89041727    -0.07200
C1650       C  0.60806912  0.77566596  0.92311063    -0.07900
C1651       C  0.60901975  0.81013247  0.92018535    -0.02500
C1652       C  0.62360145  0.82462794  0.88071909     0.04300
N1653       N  0.62522716  0.85979695  0.87669778     0.66800
H1654       H  0.65282760  0.81579039  0.81820437     0.15700
H1655       H  0.59625366  0.76432114  0.95290513     0.15500
N1656       N  0.62489619  0.72052631  0.89756185     0.74500
O1657       O  0.64351523  0.87669879  0.90495919    -0.38900
O1658       O  0.60858764  0.87401967  0.84459361    -0.38800
O1659       O  0.65219314  0.70701445  0.91423459    -0.39600
O1660       O  0.59572410  0.70578941  0.90075158    -0.39600
C1661       C  0.83576956  0.79168448  0.61218368    -0.11900
C1662       C  0.81796016  0.80791519  0.57608746     0.05100
C1663       C  0.78080774  0.80490481  0.57222980    -0.07200
C1664       C  0.76302299  0.78334940  0.60095092    -0.07900
C1665       C  0.78079767  0.76589719  0.63559735    -0.02500
C1666       C  0.81729419  0.77129749  0.64278021     0.04300
N1667       N  0.83617168  0.75508005  0.67909405     0.66800
H1668       H  0.86419866  0.79384723  0.61551927     0.15700
H1669       H  0.73473208  0.78040737  0.59639820     0.15500
N1670       N  0.76093147  0.82291843  0.53828092     0.74500
O1671       O  0.86288002  0.73755002  0.66976039    -0.38900
O1672       O  0.83027693  0.76312869  0.72056409    -0.38800
O1673       O  0.73651213  0.80890199  0.51544617    -0.39600
O1674       O  0.76641262  0.85336848  0.53288743    -0.39600
C1675       C  0.84436824  0.77786968  0.89400428    -0.11900
C1676       C  0.83511097  0.81033377  0.90602451     0.05100
C1677       C  0.80666213  0.82570132  0.88298876    -0.07200
C1678       C  0.78554802  0.80721033  0.85221739    -0.07900
C1679       C  0.79254619  0.77349598  0.84397934    -0.02500
C1680       C  0.82354087  0.75949071  0.86308591     0.04300
N1681       N  0.83376594  0.72634486  0.85236030     0.66800
H1682       H  0.86633382  0.76591695  0.91147087     0.15700
H1683       H  0.76217912  0.81868151  0.83748145     0.15500
N1684       N  0.79663851  0.85888300  0.89440732     0.74500
O1685       O  0.85009581  0.72050463  0.81539710    -0.38900
O1686       O  0.83270992  0.70461016  0.88315633    -0.38800
O1687       O  0.81202305  0.88266094  0.87546888    -0.39600
O1688       O  0.76935197  0.86430354  0.91802352    -0.39600
loop_ 
_geom_bond_atom_site_label_1 
_geom_bond_atom_site_label_2 
_geom_bond_distance 
_geom_bond_site_symmetry_2 
_ccdc_geom_bond_type 
C1            C2   1.415       .  A
C1          C217   1.408   1_554  A
C1           C49   1.487       .  S
C2            C3   1.409       .  A
C2            H7   1.083       .  S
C3          C215   1.398   1_554  A
C3          C185   1.490       .  S
C4            C5   1.392       .  A
C4          C214   1.398       .  A
C4            H8   1.085       .  S
C5            C6   1.397       .  A
C5          C199   1.469       .  S
C6          C212   1.408       .  A
C6            H9   1.084       .  S
C10          C15   1.404       .  A
C10         C222   1.406   1_554  A
C10          C48   1.481       .  S
C11          C12   1.401       .  A
C11         C221   1.406       .  A
C11          H16   1.084       .  S
C12          C13   1.402       .  A
C12         C174   1.474       .  S
C13         C225   1.399       .  A
C13          H17   1.085       .  S
C14          C15   1.400       .  A
C14         C224   1.399   1_554  A
C14         C157   1.473       .  S
C15          H18   1.084       .  S
C19          C24   1.406   1_556  A
C19         C231   1.405       .  A
C19          C50   1.482       .  S
C20          C21   1.399       .  A
C20         C230   1.405       .  A
C20          H25   1.084       .  S
C21          C22   1.404       .  A
C21         C143   1.475       .  S
C22         C234   1.400       .  A
C22          H26   1.084       .  S
C23          C24   1.403       .  A
C23         C233   1.402   1_554  A
C23         C132   1.481       .  S
C24          H27   1.084       .  S
N28          C33   1.353       .  A
N28          C32   1.351       .  A
N28          H60   1.053       .  S
N29          C36   1.350       .  A
N29          C37   1.351       .  A
N30          C35   1.352       .  A
N30          C34   1.354       .  A
N30         H483   1.032   1_545  S
N31          C38   1.352       .  A
N31          C39   1.351       .  A
C32          C40   1.388   1_554  A
C32         C892   1.420       .  A
C33          C49   1.421       .  A
C33          C41   1.387   1_554  A
C34          C42   1.388   1_556  A
C34         C895   1.419       .  A
C35          C50   1.418       .  A
C35          C43   1.388   1_556  A
C36          C48   1.412       .  A
C36          C44   1.387       .  A
C37          C45   1.387       .  A
C37         C473   1.412       .  A
C38          C46   1.387       .  A
C38          C49   1.416       .  A
C39          C47   1.387       .  A
C39         C472   1.415   1_554  A
C40          C41   1.375       .  A
C40         H896   1.082       .  S
C41          H53   1.082       .  S
C42          C43   1.374       .  A
C42          H54   1.082       .  S
C43          H55   1.082       .  S
C44          C45   1.370       .  A
C44          H56   1.082       .  S
C45          H57   1.083       .  S
C46          C47   1.372       .  A
C46          H58   1.082       .  S
C47          H59   1.082       .  S
C48         C876   1.418   1_455  A
C50         C461   1.417   1_545  A
C51         C878   1.413   1_454  A
C51         C459   1.411   1_545  A
C51          C62   1.482       .  S
H52         C884   1.082   1_455  S
H61         N452   1.053       .  S
C62          C63   1.408       .  A
C62         C278   1.405   1_554  A
C63          C64   1.407       .  A
C63          H68   1.083       .  S
C64         C276   1.401   1_554  A
C64         C101   1.488       .  S
C65          C66   1.399       .  A
C65         C275   1.402       .  A
C65          H69   1.084       .  S
C66          C67   1.397       .  A
C66         C115   1.473       .  S
C67         C273   1.405       .  A
C67          H70   1.084       .  S
O71          C79   1.264       .  A
O71         Co91   1.989       .  S
O72          C80   1.256       .  A
O72         Co92   1.977       .  S
O73          C81   1.270       .  A
O73         Co93   1.919       .  S
O74          C82   1.281       .  A
O74         Co94   2.019       .  S
O75          C81   1.293       .  A
O75         Co92   2.089       .  S
O76          C82   1.276       .  A
O76         Co91   1.986       .  S
O77          C80   1.255       .  A
O77         Co94   1.982       .  S
O78          C79   1.265       .  A
O78         Co93   1.999       .  S
C79         C171   1.476       .  S
C80         C104   1.479       .  S
C81         C160   1.482       .  S
C82         C118   1.476       .  S
O83          C96   1.255       .  A
O83         Co91   1.977       .  S
O84          C97   1.270       .  A
O84         Co92   1.892       .  S
O85          C98   1.264       .  A
O85         Co93   1.984       .  S
O86          C99   1.280       .  A
O86         Co94   1.887       .  S
O87          C99   1.309       .  A
O87         Co92   2.099       .  S
O88          C98   1.267       .  A
O88         Co91   1.987       .  S
O89          C96   1.255       .  A
O89         Co94   2.012       .  S
O90          C97   1.296       .  A
O90         Co93   2.084       .  S
Co91         O95   2.041       .  S
Co92         O95   2.076       .  S
Co93         O95   2.022       .  S
Co94         O95   1.904       .  S
C96         C146   1.476       .  S
C97         C188   1.480       .  S
C98         C202   1.480       .  S
C99         C129   1.494       .  S
C100        C101   1.405       .  A
C100        C105   1.403       .  A
C100        H107   1.084       .  S
C101        C102   1.416       .  A
C102        C103   1.397       .  A
C102        N109   1.433       .  S
C103        C104   1.401       .  A
C103        H108   1.084       .  S
C104        C105   1.414       .  A
C105        N106   1.429       .  S
N106        O110   1.261       .  A
N106        O111   1.262       .  A
N109        O113   1.263       .  A
N109        O112   1.262       .  A
C114        C115   1.400       .  A
C114        C119   1.403       .  A
C114        H121   1.084       .  S
C115        C116   1.406       .  A
C116        C117   1.401       .  A
C116        N123   1.429       .  S
C117        C118   1.402       .  A
C117        H122   1.079       .  S
C118        C119   1.412       .  A
C119        N120   1.430       .  S
N120        O124   1.261       .  A
N120        O125   1.259       .  A
N123        O127   1.261       .  A
N123        O126   1.262       .  A
C128        C129   1.411       .  A
C128        C133   1.405       .  A
C128        H135   1.083       .  S
C129        C130   1.417       .  A
C130        C131   1.401       .  A
C130        N137   1.429       .  S
C131        C132   1.399       .  A
C131        H136   1.084       .  S
C132        C133   1.407       .  A
C133        N134   1.429       .  S
N134        O138   1.262       .  A
N134        O139   1.262       .  A
N137        O141   1.262       .  A
N137        O140   1.262       .  A
C142        C143   1.404       .  A
C142        C147   1.412       .  A
C142        H149   1.083       .  S
C143        C144   1.403       .  A
C144        C145   1.396       .  A
C144        N151   1.430       .  S
C145        C146   1.404       .  A
C145        H150   1.082       .  S
C146        C147   1.413       .  A
C147        N148   1.437       .  S
N148        O152   1.263       .  A
N148        O153   1.263       .  A
N151        O155   1.262       .  A
N151        O154   1.260       .  A
C156        C157   1.399       .  A
C156        C161   1.401       .  A
C156        H163   1.084       .  S
C157        C158   1.408       .  A
C158        C159   1.404       .  A
C158        N165   1.431       .  S
C159        C160   1.406       .  A
C159        H164   1.084       .  S
C160        C161   1.415       .  A
C161        N162   1.433       .  S
N162        O166   1.262       .  A
N162        O167   1.262       .  A
N165        O380   1.262       .  A
N165        O379   1.262       .  A
O168        N376   1.262       .  A
O169        N376   1.262       .  A
C170        C171   1.406       .  A
C170        C175   1.406       .  A
C170        H177   1.084       .  S
C171        C172   1.410       .  A
C172        C173   1.398       .  A
C172        N179   1.426       .  S
C173        C174   1.398       .  A
C173        H178   1.085       .  S
C174        C175   1.408       .  A
C175        N176   1.431       .  S
N176        O180   1.262       .  A
N176        O181   1.262       .  A
N179        O183   1.262       .  A
N179        O182   1.262       .  A
C184        C185   1.408       .  A
C184        C189   1.412       .  A
C184        H191   1.083       .  S
C185        C186   1.416       .  A
C186        C187   1.395       .  A
C186        N193   1.437       .  S
C187        C188   1.400       .  A
C187        H192   1.085       .  S
C188        C189   1.412       .  A
C189        N190   1.429       .  S
N190        O194   1.262       .  A
N190        O195   1.262       .  A
N193        O197   1.262       .  A
N193        O196   1.263       .  A
C198        C199   1.399       .  A
C198        C203   1.397       .  A
C198        H205   1.084       .  S
C199        C200   1.410       .  A
C200        C201   1.402       .  A
C200        N207   1.431       .  S
C201        C202   1.406       .  A
C201        H206   1.084       .  S
C202        C203   1.411       .  A
C203        N204   1.427       .  S
N204        O208   1.262       .  A
N204        O209   1.262       .  A
N207        O211   1.261       .  A
N207        O210   1.262       .  A
C212        C213   1.415       .  A
C212        C260   1.488       .  S
C213        C214   1.409       .  A
C213        H218   1.083       .  S
C214        C396   1.487       .  S
C215        C216   1.393       .  A
C215        H219   1.085       .  S
C216        C217   1.397       .  A
C216        C410   1.471       .  S
C217        H220   1.084       .  S
C221        C226   1.404       .  A
C221        C259   1.481       .  S
C222        C223   1.400       .  A
C222        H227   1.084       .  S
C223        C224   1.401       .  A
C223        C385   1.475       .  S
C224        H228   1.085       .  S
C225        C226   1.399       .  A
C225        C368   1.473       .  S
C226        H229   1.084       .  S
C230        C235   1.405       .  A
C230        C261   1.482       .  S
C231        C232   1.399       .  A
C231        H236   1.084       .  S
C232        C233   1.404       .  A
C232        C354   1.476       .  S
C233        H237   1.084       .  S
C234        C235   1.401       .  A
C234        C343   1.476       .  S
C235        H238   1.084       .  S
N239        C244   1.356       .  A
N239        C243   1.356       .  A
N239        H271   1.035       .  S
N240        C247   1.350       .  A
N240        C248   1.351       .  A
N241        C246   1.354       .  A
N241        C245   1.356       .  A
N241        H694   1.034   1_545  S
N242        C249   1.352       .  A
N242        C250   1.353       .  A
C243        C251   1.388       .  A
C243       C1103   1.423       .  A
C244        C260   1.422       .  A
C244        C252   1.387       .  A
C245        C253   1.386       .  A
C245       C1106   1.418       .  A
C246        C261   1.421       .  A
C246        C254   1.389       .  A
C247        C259   1.413       .  A
C247        C255   1.388       .  A
C248        C684   1.411       .  A
C248        C256   1.385       .  A
C249        C257   1.387       .  A
C249        C260   1.417       .  A
C250        C258   1.387       .  A
C250        C683   1.417       .  A
C251        C252   1.376       .  A
C251       H1107   1.082       .  S
C252        H264   1.082       .  S
C253        C254   1.371       .  A
C253        H265   1.082       .  S
C254        H266   1.082       .  S
C255        C256   1.370       .  A
C255        H267   1.082       .  S
C256        H268   1.083       .  S
C257        C258   1.372       .  A
C257        H269   1.082       .  S
C258        H270   1.082       .  S
C259       C1087   1.418   1_455  A
C261        C672   1.417   1_545  A
C262       C1089   1.413   1_455  A
C262        C670   1.413   1_545  A
C262        C273   1.482       .  S
H263       C1095   1.082   1_455  S
H272        N663   1.034       .  S
C273        C274   1.409       .  A
C274        C275   1.407       .  A
C274        H279   1.083       .  S
C275        C312   1.490       .  S
C276        C277   1.396       .  A
C276        H280   1.084       .  S
C277        C278   1.396       .  A
C277        C326   1.470       .  S
C278        H281   1.084       .  S
O282        C290   1.265       .  A
O282       Co302   1.985       .  S
O283        C291   1.259       .  A
O283       Co303   1.986       .  S
O284        C292   1.269       .  A
O284       Co304   1.920       .  S
O285        C293   1.278       .  A
O285       Co305   2.016       .  S
O286        C292   1.294       .  A
O286       Co303   2.089       .  S
O287        C293   1.275       .  A
O287       Co302   1.990       .  S
O288        C291   1.255       .  A
O288       Co305   1.979       .  S
O289        C290   1.264       .  A
O289       Co304   1.997       .  S
C290        C382   1.475       .  S
C291        C315   1.482       .  S
C292        C371   1.484       .  S
C293        C329   1.478       .  S
O294        C307   1.256       .  A
O294       Co302   1.982       .  S
O295        C308   1.273       .  A
O295       Co303   1.895       .  S
O296        C309   1.263       .  A
O296       Co304   1.985       .  S
O297        C310   1.276       .  A
O297       Co305   1.877       .  S
O298        C310   1.309       .  A
O298       Co303   2.107       .  S
O299        C309   1.266       .  A
O299       Co302   1.987       .  S
O300        C307   1.255       .  A
O300       Co305   2.013       .  S
O301        C308   1.295       .  A
O301       Co304   2.077       .  S
Co302       O306   2.041       .  S
Co303       O306   2.081       .  S
Co304       O306   2.024       .  S
Co305       O306   1.902       .  S
C307        C357   1.478       .  S
C308        C399   1.478       .  S
C309        C413   1.482       .  S
C310        C340   1.486       .  S
C311        C312   1.404       .  A
C311        C316   1.404       .  A
C311        H318   1.084       .  S
C312        C313   1.414       .  A
C313        C314   1.399       .  A
C313        N320   1.432       .  S
C314        C315   1.402       .  A
C314        H319   1.083       .  S
C315        C316   1.415       .  A
C316        N317   1.429       .  S
N317        O321   1.261       .  A
N317        O322   1.262       .  A
N320        O324   1.262       .  A
N320        O323   1.262       .  A
C325        C326   1.398       .  A
C325        C330   1.404       .  A
C325        H332   1.084       .  S
C326        C327   1.404       .  A
C327        C328   1.401       .  A
C327        N334   1.430       .  S
C328        C329   1.405       .  A
C328        H333   1.079       .  S
C329        C330   1.415       .  A
C330        N331   1.437       .  S
N331        O335   1.262       .  A
N331        O336   1.262       .  A
N334        O338   1.262       .  A
N334        O337   1.262       .  A
C339        C340   1.408       .  A
C339        C344   1.400       .  A
C339        H346   1.083       .  S
C340        C341   1.414       .  A
C341        C342   1.403       .  A
C341        N348   1.428       .  S
C342        C343   1.401       .  A
C342        H347   1.084       .  S
C343        C344   1.405       .  A
C344        N345   1.429       .  S
N345        O349   1.262       .  A
N345        O350   1.261       .  A
N348        O352   1.261       .  A
N348        O351   1.261       .  A
C353        C354   1.403       .  A
C353        C358   1.414       .  A
C353        H360   1.083       .  S
C354        C355   1.402       .  A
C355        C356   1.395       .  A
C355        N362   1.429       .  S
C356        C357   1.402       .  A
C356        H361   1.081       .  S
C357        C358   1.415       .  A
C358        N359   1.438       .  S
N359        O363   1.263       .  A
N359        O364   1.262       .  A
N362        O366   1.262       .  A
N362        O365   1.260       .  A
C367        C368   1.398       .  A
C367        C372   1.402       .  A
C367        H374   1.084       .  S
C368        C369   1.407       .  A
C369        C370   1.404       .  A
C369        N376   1.431       .  S
C370        C371   1.408       .  A
C370        H375   1.084       .  S
C371        C372   1.416       .  A
C372        N373   1.435       .  S
N373        O377   1.263       .  A
N373        O378   1.262       .  A
C381        C382   1.407       .  A
C381        C386   1.406       .  A
C381        H388   1.084       .  S
C382        C383   1.408       .  A
C383        C384   1.397       .  A
C383        N390   1.426       .  S
C384        C385   1.398       .  A
C384        H389   1.084       .  S
C385        C386   1.408       .  A
C386        N387   1.429       .  S
N387        O391   1.262       .  A
N387        O392   1.262       .  A
N390        O394   1.261       .  A
N390        O393   1.262       .  A
C395        C396   1.406       .  A
C395        C400   1.412       .  A
C395        H402   1.083       .  S
C396        C397   1.414       .  A
C397        C398   1.394       .  A
C397        N404   1.435       .  S
C398        C399   1.400       .  A
C398        H403   1.085       .  S
C399        C400   1.414       .  A
C400        N401   1.432       .  S
N401        O405   1.262       .  A
N401        O406   1.262       .  A
N404        O408   1.262       .  A
N404        O407   1.263       .  A
C409        C410   1.397       .  A
C409        C414   1.395       .  A
C409        H416   1.084       .  S
C410        C411   1.409       .  A
C411        C412   1.404       .  A
C411        N418   1.428       .  S
C412        C413   1.406       .  A
C412        H417   1.084       .  S
C413        C414   1.410       .  A
C414        N415   1.424       .  S
N415        O419   1.261       .  A
N415        O420   1.262       .  A
N418        O422   1.262       .  A
N418        O421   1.262       .  A
C423        C424   1.412       .  A
C423        C639   1.407   1_554  A
C423        C471   1.486       .  S
C424        C425   1.406       .  A
C424        H429   1.083       .  S
C425        C637   1.399       .  A
C425        C607   1.484       .  S
C426        C636   1.399       .  A
C426        C427   1.394       .  A
C426        H430   1.085       .  S
C427        C428   1.394       .  A
C427        C621   1.468       .  S
C428        C634   1.405       .  A
C428        H431   1.084       .  S
C432        C644   1.407       .  A
C432        C437   1.401   1_556  A
C432        C470   1.478       .  S
C433        C643   1.408       .  A
C433        C434   1.403       .  A
C433        H438   1.084       .  S
C434        C435   1.403       .  A
C434        C596   1.479       .  S
C435        C647   1.401       .  A
C435        H439   1.085       .  S
C436        C646   1.396   1_554  A
C436        C437   1.394       .  A
C436        C579   1.466       .  S
C437        H440   1.084       .  S
C441        C653   1.404       .  A
C441        C446   1.402   1_556  A
C441        C472   1.476       .  S
C442        C652   1.407       .  A
C442        C443   1.400       .  A
C442        H447   1.084       .  S
C443        C444   1.404       .  A
C443        C565   1.478       .  S
C444        C656   1.403       .  A
C444        H448   1.084       .  S
C445        C655   1.405   1_554  A
C445        C446   1.400       .  A
C445        C554   1.482       .  S
C446        H449   1.083       .  S
N450        C455   1.354       .  A
N450        C454   1.354       .  A
N450        H482   1.034   1_554  S
N451        C458   1.350       .  A
N451        C459   1.351       .  A
N452        C457   1.349   1_554  A
N452        C456   1.351   1_554  A
N453        C460   1.353       .  A
N453        C461   1.353       .  A
C454        C462   1.387       .  A
C454       C1314   1.418       .  A
C455        C471   1.419       .  A
C455        C463   1.388       .  A
C456        C464   1.386       .  A
C456       C1317   1.413   1_556  A
C457        C472   1.416       .  A
C457        C465   1.390       .  A
C458        C470   1.414   1_554  A
C458        C466   1.388       .  A
C459        C467   1.385       .  A
C460        C468   1.387       .  A
C460        C471   1.418   1_556  A
C461        C469   1.387       .  A
C462        C463   1.376       .  A
C462       H1318   1.082       .  S
C463        H475   1.082       .  S
C464        C465   1.371       .  A
C464        H476   1.082       .  S
C465        H477   1.082       .  S
C466        C467   1.369       .  A
C466        H478   1.082       .  S
C467        H479   1.083       .  S
C468        C469   1.374       .  A
C468        H480   1.082       .  S
C469        H481   1.083       .  S
C470       C1298   1.418   1_455  A
C473       C1300   1.414   1_454  A
C473        C484   1.479   1_554  S
H474       C1306   1.082   1_455  S
C484        C485   1.406   1_556  A
C484        C700   1.404       .  A
C485        C486   1.404       .  A
C485        H490   1.084       .  S
C486        C698   1.404   1_554  A
C486        C523   1.489       .  S
C487        C697   1.403       .  A
C487        C488   1.397       .  A
C487        H491   1.084       .  S
C488        C489   1.398       .  A
C488        C537   1.474       .  S
C489        C695   1.406       .  A
C489        H492   1.084       .  S
O493        C501   1.267       .  A
O493       Co513   1.995       .  S
O494        C502   1.246       .  A
O494       Co514   1.929       .  S
O495        C503   1.276       .  A
O495       Co515   1.917       .  S
O496        C504   1.280       .  A
O496       Co516   2.029       .  S
O497        C503   1.294       .  A
O497       Co514   2.053       .  S
O498        C504   1.271       .  A
O498       Co513   1.982       .  S
O499        C502   1.265       .  A
O499       Co516   2.028       .  S
O500        C501   1.268       .  A
O500       Co515   1.991       .  S
C501        C593   1.479       .  S
C502        C526   1.488       .  S
C503        C582   1.473       .  S
C504        C540   1.482       .  S
O505        C518   1.265       .  A
O505       Co513   1.992       .  S
O506        C519   1.246       .  A
O506       Co514   1.947       .  S
O507        C520   1.269       .  A
O507       Co515   1.991       .  S
O508        C521   1.278       .  A
O508       Co516   1.905       .  S
O509        C521   1.294       .  A
O509       Co514   2.060       .  S
O510        C520   1.267       .  A
O510       Co513   1.979       .  S
O511        C518   1.264       .  A
O511       Co516   1.989       .  S
O512        C519   1.263       .  A
O512       Co515   2.028       .  S
Co513       O517   2.009       .  S
Co514       O517   2.072       .  S
Co515       O517   1.974       .  S
Co516       O517   1.967       .  S
C518        C568   1.478       .  S
C519        C610   1.480       .  S
C520        C624   1.477       .  S
C521        C551   1.489       .  S
C522        C523   1.407       .  A
C522        C527   1.408       .  A
C522        H529   1.084       .  S
C523        C524   1.411       .  A
C524        C525   1.396       .  A
C524        N531   1.431       .  S
C525        C526   1.407       .  A
C525        H530   1.083       .  S
C526        C527   1.415       .  A
C527        N528   1.429       .  S
N528        O532   1.261       .  A
N528        O533   1.262       .  A
N531        O535   1.263       .  A
N531        O534   1.261       .  A
C536        C537   1.397       .  A
C536        C541   1.405       .  A
C536        H543   1.084       .  S
C537        C538   1.405       .  A
C538        C539   1.404       .  A
C538        N545   1.429       .  S
C539        C540   1.405       .  A
C539        H544   1.080       .  S
C540        C541   1.418       .  A
C541        N542   1.439       .  S
N542        O546   1.262       .  A
N542        O547   1.262       .  A
N545        O549   1.262       .  A
N545        O548   1.262       .  A
C550        C551   1.407       .  A
C550        C555   1.405       .  A
C550        H557   1.083       .  S
C551        C552   1.421       .  A
C552        C553   1.394       .  A
C552        N559   1.431       .  S
C553        C554   1.398       .  A
C553        H558   1.084       .  S
C554        C555   1.411       .  A
C555        N556   1.429       .  S
N556        O560   1.262       .  A
N556        O561   1.262       .  A
N559        O563   1.262       .  A
N559        O562   1.262       .  A
C564        C565   1.404       .  A
C564        C569   1.414       .  A
C564        H571   1.083       .  S
C565        C566   1.403       .  A
C566        C567   1.396       .  A
C566        N573   1.431       .  S
C567        C568   1.404       .  A
C567        H572   1.082       .  S
C568        C569   1.415       .  A
C569        N570   1.440       .  S
N570        O574   1.263       .  A
N570        O575   1.263       .  A
N573        O577   1.262       .  A
N573        O576   1.261       .  A
C578        C579   1.396       .  A
C578        C583   1.395       .  A
C578        H585   1.084       .  S
C579        C580   1.407       .  A
C580        C581   1.403       .  A
C580        N587   1.429       .  S
C581        C582   1.404       .  A
C581        H586   1.083       .  S
C582        C583   1.414       .  A
C583        N584   1.432       .  S
N584        O588   1.262       .  A
N584        O589   1.262       .  A
N587        O802   1.262       .  A
N587        O801   1.261       .  A
O590        N798   1.262       .  A
O591        N798   1.262       .  A
C592        C593   1.408       .  A
C592        C597   1.408       .  A
C592        H599   1.084       .  S
C593        C594   1.407       .  A
C594        C595   1.400       .  A
C594        N601   1.426       .  S
C595        C596   1.400       .  A
C595        H600   1.084       .  S
C596        C597   1.408       .  A
C597        N598   1.430       .  S
N598        O602   1.262       .  A
N598        O603   1.262       .  A
N601        O605   1.261       .  A
N601        O604   1.262       .  A
C606        C607   1.408       .  A
C606        C611   1.415       .  A
C606        H613   1.083       .  S
C607        C608   1.409       .  A
C608        C609   1.393       .  A
C608        N615   1.433       .  S
C609        C610   1.402       .  A
C609        H614   1.083       .  S
C610        C611   1.411       .  A
C611        N612   1.430       .  S
N612        O616   1.262       .  A
N612        O617   1.261       .  A
N615        O619   1.262       .  A
N615        O618   1.262       .  A
C620        C621   1.397       .  A
C620        C625   1.395       .  A
C620        H627   1.084       .  S
C621        C622   1.408       .  A
C622        C623   1.400       .  A
C622        N629   1.428       .  S
C623        C624   1.403       .  A
C623        H628   1.084       .  S
C624        C625   1.413       .  A
C625        N626   1.427       .  S
N626        O630   1.261       .  A
N626        O631   1.262       .  A
N629        O633   1.261       .  A
N629        O632   1.261       .  A
C634        C635   1.414       .  A
C634        C682   1.483       .  S
C635        C636   1.408       .  A
C635        H640   1.083       .  S
C636        C818   1.488       .  S
C637        C638   1.396   1_554  A
C637        H641   1.085   1_554  S
C638        C639   1.399       .  A
C638        C832   1.473       .  S
C639        H642   1.084       .  S
C643        C648   1.405       .  A
C643        C681   1.485       .  S
C644        C645   1.402       .  A
C644        H649   1.083       .  S
C645        C646   1.402       .  A
C645        C807   1.476       .  S
C646        H650   1.085       .  S
C647        C648   1.401       .  A
C647        C790   1.476       .  S
C648        H651   1.084       .  S
C652        C657   1.405       .  A
C652        C683   1.484       .  S
C653        C654   1.396       .  A
C653        H658   1.084       .  S
C654        C655   1.402       .  A
C654        C776   1.476       .  S
C655        H659   1.084       .  S
C656        C657   1.402       .  A
C656        C765   1.483       .  S
C657        H660   1.084       .  S
N661        C666   1.355       .  A
N661        C665   1.354       .  A
N661        H693   1.034       .  S
N662        C669   1.351       .  A
N662        C670   1.352       .  A
N663        C668   1.354       .  A
N663        C667   1.353       .  A
N664        C671   1.352       .  A
N664        C672   1.351       .  A
C665        C673   1.387       .  A
C665       C1525   1.417       .  A
C666        C682   1.419       .  A
C666        C674   1.388       .  A
C667        C675   1.387       .  A
C667       C1528   1.416       .  A
C668        C683   1.419       .  A
C668        C676   1.389       .  A
C669        C681   1.415       .  A
C669        C677   1.388       .  A
C670        C678   1.386       .  A
C671        C679   1.387       .  A
C671        C682   1.416       .  A
C672        C680   1.388       .  A
C673        C674   1.374       .  A
C673       H1529   1.082       .  S
C674        H686   1.082       .  S
C675        C676   1.373       .  A
C675        H687   1.082       .  S
C676        H688   1.082       .  S
C677        C678   1.372       .  A
C677        H689   1.082       .  S
C678        H690   1.083       .  S
C679        C680   1.373       .  A
C679        H691   1.083       .  S
C680        H692   1.083       .  S
C681       C1509   1.420   1_455  A
C684       C1511   1.413   1_455  A
C684        C695   1.483       .  S
H685       C1517   1.082   1_455  S
C695        C696   1.407       .  A
C696        C697   1.406       .  A
C696        H701   1.084       .  S
C697        C734   1.487       .  S
C698        C699   1.402       .  A
C698        H702   1.083       .  S
C699        C700   1.397       .  A
C699        C748   1.475       .  S
C700        H703   1.084       .  S
O704        C712   1.263       .  A
O704       Co724   1.982       .  S
O705        C713   1.257       .  A
O705       Co725   1.982       .  S
O706        C714   1.270       .  A
O706       Co726   1.923       .  S
O707        C715   1.280       .  A
O707       Co727   2.019       .  S
O708        C714   1.293       .  A
O708       Co725   2.087       .  S
O709        C715   1.274       .  A
O709       Co724   1.979       .  S
O710        C713   1.254       .  A
O710       Co727   1.978       .  S
O711        C712   1.265       .  A
O711       Co726   2.000       .  S
C712        C804   1.478       .  S
C713        C737   1.481       .  S
C714        C793   1.484       .  S
C715        C751   1.474       .  S
O716        C729   1.254       .  A
O716       Co724   1.976       .  S
O717        C730   1.271       .  A
O717       Co725   1.886       .  S
O718        C731   1.266       .  A
O718       Co726   1.992       .  S
O719        C732   1.279       .  A
O719       Co727   1.887       .  S
O720        C732   1.308       .  A
O720       Co725   2.099       .  S
O721        C731   1.265       .  A
O721       Co724   1.981       .  S
O722        C729   1.256       .  A
O722       Co727   2.012       .  S
O723        C730   1.297       .  A
O723       Co726   2.083       .  S
Co724       O728   2.036       .  S
Co725       O728   2.073       .  S
Co726       O728   2.024       .  S
Co727       O728   1.902       .  S
C729        C779   1.476       .  S
C730        C821   1.480       .  S
C731        C835   1.485       .  S
C732        C762   1.495       .  S
C733        C734   1.404       .  A
C733        C738   1.402       .  A
C733        H740   1.084       .  S
C734        C735   1.414       .  A
C735        C736   1.398       .  A
C735        N742   1.432       .  S
C736        C737   1.402       .  A
C736        H741   1.083       .  S
C737        C738   1.414       .  A
C738        N739   1.429       .  S
N739        O743   1.261       .  A
N739        O744   1.262       .  A
N742        O746   1.262       .  A
N742        O745   1.262       .  A
C747        C748   1.400       .  A
C747        C752   1.403       .  A
C747        H754   1.084       .  S
C748        C749   1.405       .  A
C749        C750   1.401       .  A
C749        N756   1.429       .  S
C750        C751   1.404       .  A
C750        H755   1.081       .  S
C751        C752   1.415       .  A
C752        N753   1.434       .  S
N753        O757   1.262       .  A
N753        O758   1.261       .  A
N756        O760   1.261       .  A
N756        O759   1.262       .  A
C761        C762   1.410       .  A
C761        C766   1.405       .  A
C761        H768   1.083       .  S
C762        C763   1.419       .  A
C763        C764   1.400       .  A
C763        N770   1.429       .  S
C764        C765   1.399       .  A
C764        H769   1.084       .  S
C765        C766   1.408       .  A
C766        N767   1.429       .  S
N767        O771   1.262       .  A
N767        O772   1.262       .  A
N770        O774   1.262       .  A
N770        O773   1.262       .  A
C775        C776   1.403       .  A
C775        C780   1.413       .  A
C775        H782   1.083       .  S
C776        C777   1.401       .  A
C777        C778   1.395       .  A
C777        N784   1.429       .  S
C778        C779   1.404       .  A
C778        H783   1.083       .  S
C779        C780   1.415       .  A
C780        N781   1.440       .  S
N781        O785   1.263       .  A
N781        O786   1.263       .  A
N784        O788   1.262       .  A
N784        O787   1.260       .  A
C789        C790   1.399       .  A
C789        C794   1.402       .  A
C789        H796   1.084       .  S
C790        C791   1.408       .  A
C791        C792   1.405       .  A
C791        N798   1.430       .  S
C792        C793   1.407       .  A
C792        H797   1.084       .  S
C793        C794   1.414       .  A
C794        N795   1.432       .  S
N795        O799   1.262       .  A
N795        O800   1.262       .  A
C803        C804   1.408       .  A
C803        C808   1.406       .  A
C803        H810   1.084       .  S
C804        C805   1.416       .  A
C805        C806   1.396       .  A
C805        N812   1.433       .  S
C806        C807   1.398       .  A
C806        H811   1.085       .  S
C807        C808   1.407       .  A
C808        N809   1.429       .  S
N809        O813   1.262       .  A
N809        O814   1.262       .  A
N812        O816   1.262       .  A
N812        O815   1.262       .  A
C817        C818   1.407       .  A
C817        C822   1.413       .  A
C817        H824   1.083       .  S
C818        C819   1.414       .  A
C819        C820   1.391       .  A
C819        N826   1.435       .  S
C820        C821   1.400       .  A
C820        H825   1.085       .  S
C821        C822   1.414       .  A
C822        N823   1.431       .  S
N823        O827   1.262       .  A
N823        O828   1.262       .  A
N826        O830   1.262       .  A
N826        O829   1.263       .  A
C831        C832   1.398       .  A
C831        C836   1.396       .  A
C831        H838   1.084       .  S
C832        C833   1.408       .  A
C833        C834   1.403       .  A
C833        N840   1.429       .  S
C834        C835   1.407       .  A
C834        H839   1.084       .  S
C835        C836   1.412       .  A
C836        N837   1.426       .  S
N837        O841   1.261       .  A
N837        O842   1.262       .  A
N840        O844   1.262       .  A
N840        O843   1.262       .  A
C845        C846   1.412       .  A
C845       C1061   1.407   1_554  A
C845        C893   1.484       .  S
C846        C847   1.407       .  A
C846        H851   1.083       .  S
C847       C1059   1.400       .  A
C847       C1029   1.487       .  S
C848       C1058   1.397       .  A
C848        C849   1.393       .  A
C848        H852   1.086       .  S
C849        C850   1.395       .  A
C849       C1043   1.467       .  S
C850       C1056   1.407       .  A
C850        H853   1.084       .  S
C854       C1066   1.406   1_554  A
C854        C859   1.403       .  A
C854        C892   1.479       .  S
C855       C1065   1.409       .  A
C855        C856   1.404       .  A
C855        H860   1.084       .  S
C856        C857   1.402       .  A
C856       C1018   1.480       .  S
C857       C1069   1.401       .  A
C857        H861   1.085       .  S
C858       C1068   1.398       .  A
C858        C859   1.397       .  A
C858       C1001   1.469       .  S
C859        H862   1.084       .  S
C863       C1075   1.404       .  A
C863        C868   1.403   1_556  A
C863        C894   1.477       .  S
C864       C1074   1.404       .  A
C864        C865   1.398       .  A
C864        H869   1.084       .  S
C865        C866   1.404       .  A
C865        C987   1.478       .  S
C866       C1078   1.407       .  A
C866        H870   1.084       .  S
C867       C1077   1.403   1_554  A
C867        C868   1.399       .  A
C867        C976   1.477       .  S
C868        H871   1.084       .  S
N872        C877   1.354       .  A
N872        C876   1.355       .  A
N872        H904   1.036       .  S
N873        C880   1.350       .  A
N873        C881   1.352       .  A
N874        C879   1.352   1_554  A
N874        C878   1.355   1_554  A
N874       H1327   1.035   1_545  S
N875        C882   1.352       .  A
N875        C883   1.352       .  A
C876        C884   1.387   1_554  A
C877        C893   1.418       .  A
C877        C885   1.387       .  A
C878        C886   1.385       .  A
C879        C894   1.419       .  A
C879        C887   1.391       .  A
C880        C892   1.416       .  A
C880        C888   1.389       .  A
C881       C1317   1.413       .  A
C881        C889   1.385       .  A
C882        C890   1.386       .  A
C882        C893   1.415       .  A
C883        C891   1.388       .  A
C883       C1316   1.416   1_554  A
C884        C885   1.373   1_556  A
C885        H897   1.082   1_554  S
C886        C887   1.372       .  A
C886        H898   1.083       .  S
C887        H899   1.082       .  S
C888        C889   1.370       .  A
C888        H900   1.082       .  S
C889        H901   1.083       .  S
C890        C891   1.372       .  A
C890        H902   1.083       .  S
C891        H903   1.082       .  S
C894       C1305   1.417   1_546  A
C895       C1303   1.417   1_545  A
C895        C906   1.484       .  S
H905       N1296   1.036       .  S
C906        C907   1.409   1_556  A
C906       C1122   1.406       .  A
C907        C908   1.405       .  A
C907        H912   1.084       .  S
C908       C1120   1.404   1_554  A
C908        C945   1.489       .  S
C909       C1119   1.402       .  A
C909        C910   1.397       .  A
C909        H913   1.084       .  S
C910        C911   1.399       .  A
C910        C959   1.474       .  S
C911       C1117   1.407       .  A
C911        H914   1.084       .  S
O915        C923   1.267       .  A
O915       Co935   1.996       .  S
O916        C924   1.246       .  A
O916       Co936   1.929       .  S
O917        C925   1.275       .  A
O917       Co937   1.913       .  S
O918        C926   1.280       .  A
O918       Co938   2.030       .  S
O919        C925   1.295       .  A
O919       Co936   2.061       .  S
O920        C926   1.272       .  A
O920       Co935   1.985       .  S
O921        C924   1.266       .  A
O921       Co938   2.030       .  S
O922        C923   1.269       .  A
O922       Co937   1.991       .  S
C923       C1015   1.480       .  S
C924        C948   1.488       .  S
C925       C1004   1.475       .  S
C926        C962   1.484       .  S
O927        C940   1.265       .  A
O927       Co935   1.990       .  S
O928        C941   1.246       .  A
O928       Co936   1.945       .  S
O929        C942   1.269       .  A
O929       Co937   1.988       .  S
O930        C943   1.279       .  A
O930       Co938   1.908       .  S
O931        C943   1.296       .  A
O931       Co936   2.063       .  S
O932        C942   1.267       .  A
O932       Co935   1.982       .  S
O933        C940   1.263       .  A
O933       Co938   1.990       .  S
O934        C941   1.263       .  A
O934       Co937   2.028       .  S
Co935       O939   2.011       .  S
Co936       O939   2.075       .  S
Co937       O939   1.973       .  S
Co938       O939   1.968       .  S
C940        C990   1.477       .  S
C941       C1032   1.482       .  S
C942       C1046   1.478       .  S
C943        C973   1.486       .  S
C944        C945   1.407       .  A
C944        C949   1.408       .  A
C944        H951   1.084       .  S
C945        C946   1.412       .  A
C946        C947   1.396       .  A
C946        N953   1.432       .  S
C947        C948   1.406       .  A
C947        H952   1.083       .  S
C948        C949   1.414       .  A
C949        N950   1.429       .  S
N950        O954   1.261       .  A
N950        O955   1.262       .  A
N953        O957   1.263       .  A
N953        O956   1.261       .  A
C958        C959   1.396       .  A
C958        C963   1.404       .  A
C958        H965   1.084       .  S
C959        C960   1.405       .  A
C960        C961   1.404       .  A
C960        N967   1.429       .  S
C961        C962   1.406       .  A
C961        H966   1.080       .  S
C962        C963   1.418       .  A
C963        N964   1.436       .  S
N964        O968   1.262       .  A
N964        O969   1.262       .  A
N967        O971   1.262       .  A
N967        O970   1.262       .  A
C972        C973   1.406       .  A
C972        C977   1.405       .  A
C972        H979   1.084       .  S
C973        C974   1.419       .  A
C974        C975   1.396       .  A
C974        N981   1.431       .  S
C975        C976   1.397       .  A
C975        H980   1.084       .  S
C976        C977   1.409       .  A
C977        N978   1.428       .  S
N978        O982   1.262       .  A
N978        O983   1.262       .  A
N981        O985   1.262       .  A
N981        O984   1.262       .  A
C986        C987   1.404       .  A
C986        C991   1.413       .  A
C986        H993   1.083       .  S
C987        C988   1.402       .  A
C988        C989   1.397       .  A
C988        N995   1.429       .  S
C989        C990   1.405       .  A
C989        H994   1.082       .  S
C990        C991   1.414       .  A
C991        N992   1.440       .  S
N992        O996   1.263       .  A
N992        O997   1.263       .  A
N995        O999   1.262       .  A
N995        O998   1.260       .  A
C1000      C1001   1.397       .  A
C1000      C1005   1.397       .  A
C1000      H1007   1.084       .  S
C1001      C1002   1.408       .  A
C1002      C1003   1.403       .  A
C1002      N1009   1.429       .  S
C1003      C1004   1.404       .  A
C1003      H1008   1.084       .  S
C1004      C1005   1.413       .  A
C1005      N1006   1.432       .  S
N1006      O1010   1.262       .  A
N1006      O1011   1.262       .  A
N1009      O1224   1.262       .  A
N1009      O1223   1.262       .  A
O1012      N1220   1.262       .  A
O1013      N1220   1.262       .  A
C1014      C1015   1.409       .  A
C1014      C1019   1.408       .  A
C1014      H1021   1.084       .  S
C1015      C1016   1.407       .  A
C1016      C1017   1.401       .  A
C1016      N1023   1.425       .  S
C1017      C1018   1.400       .  A
C1017      H1022   1.084       .  S
C1018      C1019   1.409       .  A
C1019      N1020   1.430       .  S
N1020      O1024   1.262       .  A
N1020      O1025   1.262       .  A
N1023      O1027   1.261       .  A
N1023      O1026   1.262       .  A
C1028      C1029   1.409       .  A
C1028      C1033   1.417       .  A
C1028      H1035   1.083       .  S
C1029      C1030   1.410       .  A
C1030      C1031   1.392       .  A
C1030      N1037   1.435       .  S
C1031      C1032   1.403       .  A
C1031      H1036   1.084       .  S
C1032      C1033   1.413       .  A
C1033      N1034   1.433       .  S
N1034      O1038   1.262       .  A
N1034      O1039   1.262       .  A
N1037      O1041   1.262       .  A
N1037      O1040   1.263       .  A
C1042      C1043   1.398       .  A
C1042      C1047   1.395       .  A
C1042      H1049   1.084       .  S
C1043      C1044   1.407       .  A
C1044      C1045   1.399       .  A
C1044      N1051   1.428       .  S
C1045      C1046   1.405       .  A
C1045      H1050   1.084       .  S
C1046      C1047   1.414       .  A
C1047      N1048   1.427       .  S
N1048      O1052   1.261       .  A
N1048      O1053   1.262       .  A
N1051      O1055   1.261       .  A
N1051      O1054   1.261       .  A
C1056      C1057   1.415       .  A
C1056      C1104   1.487       .  S
C1057      C1058   1.409       .  A
C1057      H1062   1.083       .  S
C1058      C1240   1.487       .  S
C1059      C1060   1.396   1_554  A
C1059      H1063   1.085       .  S
C1060      C1061   1.397       .  A
C1060      C1254   1.472       .  S
C1061      H1064   1.084       .  S
C1065      C1070   1.407       .  A
C1065      C1103   1.489       .  S
C1066      C1067   1.401       .  A
C1066      H1071   1.084       .  S
C1067      C1068   1.400   1_556  A
C1067      C1229   1.473       .  S
C1068      H1072   1.085   1_554  S
C1069      C1070   1.403       .  A
C1069      C1212   1.479       .  S
C1070      H1073   1.084       .  S
C1074      C1079   1.403       .  A
C1074      C1105   1.479       .  S
C1075      C1076   1.396       .  A
C1075      H1080   1.084       .  S
C1076      C1077   1.403       .  A
C1076      C1198   1.474       .  S
C1077      H1081   1.084       .  S
C1078      C1079   1.403       .  A
C1078      C1187   1.489       .  S
C1079      H1082   1.083       .  S
N1083      C1088   1.355       .  A
N1083      C1087   1.355       .  A
N1083      H1115   1.036       .  S
N1084      C1091   1.353       .  A
N1084      C1092   1.353       .  A
N1085      C1090   1.352       .  A
N1085      C1089   1.353       .  A
N1085      H1538   1.037   1_545  S
N1086      C1093   1.353       .  A
N1086      C1094   1.352       .  A
C1087      C1095   1.387       .  A
C1088      C1104   1.420       .  A
C1088      C1096   1.388       .  A
C1089      C1097   1.386       .  A
C1090      C1105   1.416       .  A
C1090      C1098   1.389       .  A
C1091      C1103   1.417       .  A
C1091      C1099   1.387       .  A
C1092      C1528   1.416       .  A
C1092      C1100   1.386       .  A
C1093      C1101   1.387       .  A
C1093      C1104   1.416       .  A
C1094      C1102   1.387       .  A
C1094      C1527   1.417       .  A
C1095      C1096   1.375       .  A
C1096      H1108   1.082       .  S
C1097      C1098   1.373       .  A
C1097      H1109   1.082       .  S
C1098      H1110   1.082       .  S
C1099      C1100   1.372       .  A
C1099      H1111   1.082       .  S
C1100      H1112   1.083       .  S
C1101      C1102   1.374       .  A
C1101      H1113   1.082       .  S
C1102      H1114   1.082       .  S
C1105      C1516   1.414   1_545  A
C1106      C1514   1.414   1_545  A
C1106      C1117   1.484       .  S
H1116      N1507   1.035       .  S
C1117      C1118   1.407       .  A
C1118      C1119   1.405       .  A
C1118      H1123   1.084       .  S
C1119      C1156   1.485       .  S
C1120      C1121   1.401       .  A
C1120      H1124   1.084       .  S
C1121      C1122   1.397       .  A
C1121      C1170   1.475       .  S
C1122      H1125   1.084       .  S
O1126      C1134   1.263       .  A
O1126     Co1146   1.985       .  S
O1127      C1135   1.257       .  A
O1127     Co1147   1.983       .  S
O1128      C1136   1.271       .  A
O1128     Co1148   1.925       .  S
O1129      C1137   1.279       .  A
O1129     Co1149   2.018       .  S
O1130      C1136   1.294       .  A
O1130     Co1147   2.083       .  S
O1131      C1137   1.275       .  A
O1131     Co1146   1.984       .  S
O1132      C1135   1.253       .  A
O1132     Co1149   1.976       .  S
O1133      C1134   1.264       .  A
O1133     Co1148   1.999       .  S
C1134      C1226   1.477       .  S
C1135      C1159   1.479       .  S
C1136      C1215   1.489       .  S
C1137      C1173   1.474       .  S
O1138      C1151   1.256       .  A
O1138     Co1146   1.979       .  S
O1139      C1152   1.271       .  A
O1139     Co1147   1.887       .  S
O1140      C1153   1.266       .  A
O1140     Co1148   1.991       .  S
O1141      C1154   1.278       .  A
O1141     Co1149   1.884       .  S
O1142      C1154   1.308       .  A
O1142     Co1147   2.104       .  S
O1143      C1153   1.265       .  A
O1143     Co1146   1.982       .  S
O1144      C1151   1.256       .  A
O1144     Co1149   2.006       .  S
O1145      C1152   1.296       .  A
O1145     Co1148   2.082       .  S
Co1146     O1150   2.039       .  S
Co1147     O1150   2.075       .  S
Co1148     O1150   2.027       .  S
Co1149     O1150   1.905       .  S
C1151      C1201   1.475       .  S
C1152      C1243   1.478       .  S
C1153      C1257   1.483       .  S
C1154      C1184   1.493       .  S
C1155      C1156   1.403       .  A
C1155      C1160   1.403       .  A
C1155      H1162   1.084       .  S
C1156      C1157   1.413       .  A
C1157      C1158   1.397       .  A
C1157      N1164   1.432       .  S
C1158      C1159   1.401       .  A
C1158      H1163   1.083       .  S
C1159      C1160   1.416       .  A
C1160      N1161   1.430       .  S
N1161      O1165   1.261       .  A
N1161      O1166   1.262       .  A
N1164      O1168   1.262       .  A
N1164      O1167   1.262       .  A
C1169      C1170   1.400       .  A
C1169      C1174   1.400       .  A
C1169      H1176   1.084       .  S
C1170      C1171   1.407       .  A
C1171      C1172   1.403       .  A
C1171      N1178   1.430       .  S
C1172      C1173   1.403       .  A
C1172      H1177   1.081       .  S
C1173      C1174   1.410       .  A
C1174      N1175   1.429       .  S
N1175      O1179   1.261       .  A
N1175      O1180   1.258       .  A
N1178      O1182   1.261       .  A
N1178      O1181   1.262       .  A
C1183      C1184   1.409       .  A
C1183      C1188   1.406       .  A
C1183      H1190   1.084       .  S
C1184      C1185   1.415       .  A
C1185      C1186   1.398       .  A
C1185      N1192   1.426       .  S
C1186      C1187   1.401       .  A
C1186      H1191   1.084       .  S
C1187      C1188   1.413       .  A
C1188      N1189   1.431       .  S
N1189      O1193   1.262       .  A
N1189      O1194   1.262       .  A
N1192      O1196   1.262       .  A
N1192      O1195   1.261       .  A
C1197      C1198   1.403       .  A
C1197      C1202   1.413       .  A
C1197      H1204   1.083       .  S
C1198      C1199   1.401       .  A
C1199      C1200   1.395       .  A
C1199      N1206   1.430       .  S
C1200      C1201   1.405       .  A
C1200      H1205   1.083       .  S
C1201      C1202   1.415       .  A
C1202      N1203   1.440       .  S
N1203      O1207   1.263       .  A
N1203      O1208   1.263       .  A
N1206      O1210   1.262       .  A
N1206      O1209   1.260       .  A
C1211      C1212   1.399       .  A
C1211      C1216   1.404       .  A
C1211      H1218   1.084       .  S
C1212      C1213   1.408       .  A
C1213      C1214   1.406       .  A
C1213      N1220   1.431       .  S
C1214      C1215   1.408       .  A
C1214      H1219   1.084       .  S
C1215      C1216   1.417       .  A
C1216      N1217   1.436       .  S
N1217      O1221   1.263       .  A
N1217      O1222   1.262       .  A
C1225      C1226   1.407       .  A
C1225      C1230   1.405       .  A
C1225      H1232   1.084       .  S
C1226      C1227   1.412       .  A
C1227      C1228   1.398       .  A
C1227      N1234   1.427       .  S
C1228      C1229   1.397       .  A
C1228      H1233   1.085       .  S
C1229      C1230   1.407       .  A
C1230      N1231   1.430       .  S
N1231      O1235   1.262       .  A
N1231      O1236   1.262       .  A
N1234      O1238   1.263       .  A
N1234      O1237   1.262       .  A
C1239      C1240   1.407       .  A
C1239      C1244   1.412       .  A
C1239      H1246   1.083       .  S
C1240      C1241   1.415       .  A
C1241      C1242   1.392       .  A
C1241      N1248   1.435       .  S
C1242      C1243   1.400       .  A
C1242      H1247   1.085       .  S
C1243      C1244   1.412       .  A
C1244      N1245   1.429       .  S
N1245      O1249   1.262       .  A
N1245      O1250   1.262       .  A
N1248      O1252   1.262       .  A
N1248      O1251   1.263       .  A
C1253      C1254   1.397       .  A
C1253      C1258   1.395       .  A
C1253      H1260   1.084       .  S
C1254      C1255   1.408       .  A
C1255      C1256   1.404       .  A
C1255      N1262   1.429       .  S
C1256      C1257   1.407       .  A
C1256      H1261   1.084       .  S
C1257      C1258   1.412       .  A
C1258      N1259   1.425       .  S
N1259      O1263   1.261       .  A
N1259      O1264   1.262       .  A
N1262      O1266   1.262       .  A
N1262      O1265   1.262       .  A
C1267      C1268   1.415       .  A
C1267      C1483   1.408   1_554  A
C1267      C1315   1.487       .  S
C1268      C1269   1.409       .  A
C1268      H1273   1.083       .  S
C1269      C1481   1.399   1_554  A
C1269      C1451   1.489       .  S
C1270      C1480   1.398       .  A
C1270      C1271   1.392       .  A
C1270      H1274   1.085       .  S
C1271      C1272   1.396       .  A
C1271      C1465   1.468       .  S
C1272      C1478   1.407       .  A
C1272      H1275   1.084       .  S
C1276      C1488   1.408   1_554  A
C1276      C1281   1.406       .  A
C1276      C1314   1.483       .  S
C1277      C1487   1.405       .  A
C1277      C1278   1.400       .  A
C1277      H1282   1.084       .  S
C1278      C1279   1.402       .  A
C1278      C1440   1.474       .  S
C1279      C1491   1.400       .  A
C1279      H1283   1.085       .  S
C1280      C1490   1.397       .  A
C1280      C1281   1.400       .  A
C1280      C1423   1.473       .  S
C1281      H1284   1.084       .  S
C1285      C1497   1.404       .  A
C1285      C1290   1.405   1_556  A
C1285      C1316   1.481       .  S
C1286      C1496   1.405       .  A
C1286      C1287   1.398       .  A
C1286      H1291   1.084       .  S
C1287      C1288   1.404       .  A
C1287      C1409   1.475       .  S
C1288      C1500   1.401       .  A
C1288      H1292   1.084       .  S
C1289      C1499   1.406   1_554  A
C1289      C1290   1.404       .  A
C1289      C1398   1.488       .  S
C1290      H1293   1.083       .  S
N1294      C1299   1.355   1_554  A
N1294      C1298   1.353   1_554  A
N1294      H1326   1.034       .  S
N1295      C1302   1.351       .  A
N1295      C1303   1.352       .  A
N1296      C1301   1.352   1_554  A
N1296      C1300   1.354   1_554  A
N1297      C1304   1.353       .  A
N1297      C1305   1.351       .  A
C1298      C1306   1.388       .  A
C1299      C1315   1.419   1_556  A
C1299      C1307   1.388       .  A
C1300      C1308   1.386       .  A
C1301      C1316   1.418       .  A
C1301      C1309   1.390       .  A
C1302      C1314   1.414   1_556  A
C1302      C1310   1.386       .  A
C1303      C1311   1.388       .  A
C1304      C1312   1.386       .  A
C1304      C1315   1.415       .  A
C1305      C1313   1.388       .  A
C1306      C1307   1.373       .  A
C1307      H1319   1.082       .  S
C1308      C1309   1.373       .  A
C1308      H1320   1.082       .  S
C1309      H1321   1.082       .  S
C1310      C1311   1.370       .  A
C1310      H1322   1.083       .  S
C1311      H1323   1.082       .  S
C1312      C1313   1.372       .  A
C1312      H1324   1.082       .  S
C1313      H1325   1.082       .  S
C1317      C1328   1.481   1_554  S
C1328      C1329   1.408   1_556  A
C1328      C1544   1.404       .  A
C1329      C1330   1.406       .  A
C1329      H1334   1.084       .  S
C1330      C1542   1.403   1_554  A
C1330      C1367   1.489       .  S
C1331      C1541   1.403       .  A
C1331      C1332   1.399       .  A
C1331      H1335   1.084       .  S
C1332      C1333   1.397       .  A
C1332      C1381   1.472       .  S
C1333      C1539   1.404       .  A
C1333      H1336   1.084       .  S
O1337      C1345   1.263       .  A
O1337     Co1357   1.984       .  S
O1338      C1346   1.257       .  A
O1338     Co1358   1.982       .  S
O1339      C1347   1.269       .  A
O1339     Co1359   1.919       .  S
O1340      C1348   1.279       .  A
O1340     Co1360   2.017       .  S
O1341      C1347   1.294       .  A
O1341     Co1358   2.086       .  S
O1342      C1348   1.276       .  A
O1342     Co1357   1.987       .  S
O1343      C1346   1.255       .  A
O1343     Co1360   1.981       .  S
O1344      C1345   1.266       .  A
O1344     Co1359   2.004       .  S
C1345      C1437   1.477       .  S
C1346      C1370   1.481       .  S
C1347      C1426   1.479       .  S
C1348      C1384   1.475       .  S
O1349      C1362   1.255       .  A
O1349     Co1357   1.977       .  S
O1350      C1363   1.271       .  A
O1350     Co1358   1.885       .  S
O1351      C1364   1.263       .  A
O1351     Co1359   1.980       .  S
O1352      C1365   1.278       .  A
O1352     Co1360   1.883       .  S
O1353      C1365   1.309       .  A
O1353     Co1358   2.107       .  S
O1354      C1364   1.267       .  A
O1354     Co1357   1.990       .  S
O1355      C1362   1.256       .  A
O1355     Co1360   2.009       .  S
O1356      C1363   1.297       .  A
O1356     Co1359   2.086       .  S
Co1357     O1361   2.041       .  S
Co1358     O1361   2.074       .  S
Co1359     O1361   2.025       .  S
Co1360     O1361   1.905       .  S
C1362      C1412   1.475       .  S
C1363      C1454   1.480       .  S
C1364      C1468   1.480       .  S
C1365      C1395   1.496       .  S
C1366      C1367   1.404       .  A
C1366      C1371   1.403       .  A
C1366      H1373   1.084       .  S
C1367      C1368   1.414       .  A
C1368      C1369   1.400       .  A
C1368      N1375   1.432       .  S
C1369      C1370   1.403       .  A
C1369      H1374   1.084       .  S
C1370      C1371   1.415       .  A
C1371      N1372   1.430       .  S
N1372      O1376   1.261       .  A
N1372      O1377   1.262       .  A
N1375      O1379   1.262       .  A
N1375      O1378   1.262       .  A
C1380      C1381   1.398       .  A
C1380      C1385   1.401       .  A
C1380      H1387   1.084       .  S
C1381      C1382   1.407       .  A
C1382      C1383   1.403       .  A
C1382      N1389   1.430       .  S
C1383      C1384   1.404       .  A
C1383      H1388   1.082       .  S
C1384      C1385   1.412       .  A
C1385      N1386   1.430       .  S
N1386      O1390   1.261       .  A
N1386      O1391   1.260       .  A
N1389      O1393   1.261       .  A
N1389      O1392   1.262       .  A
C1394      C1395   1.410       .  A
C1394      C1399   1.405       .  A
C1394      H1401   1.083       .  S
C1395      C1396   1.417       .  A
C1396      C1397   1.400       .  A
C1396      N1403   1.426       .  S
C1397      C1398   1.400       .  A
C1397      H1402   1.084       .  S
C1398      C1399   1.411       .  A
C1399      N1400   1.429       .  S
N1400      O1404   1.262       .  A
N1400      O1405   1.262       .  A
N1403      O1407   1.262       .  A
N1403      O1406   1.261       .  A
C1408      C1409   1.402       .  A
C1408      C1413   1.412       .  A
C1408      H1415   1.083       .  S
C1409      C1410   1.401       .  A
C1410      C1411   1.396       .  A
C1410      N1417   1.429       .  S
C1411      C1412   1.404       .  A
C1411      H1416   1.083       .  S
C1412      C1413   1.415       .  A
C1413      N1414   1.439       .  S
N1414      O1418   1.263       .  A
N1414      O1419   1.263       .  A
N1417      O1421   1.262       .  A
N1417      O1420   1.260       .  A
C1422      C1423   1.399       .  A
C1422      C1427   1.400       .  A
C1422      H1429   1.084       .  S
C1423      C1424   1.408       .  A
C1424      C1425   1.403       .  A
C1424      N1431   1.429       .  S
C1425      C1426   1.406       .  A
C1425      H1430   1.084       .  S
C1426      C1427   1.413       .  A
C1427      N1428   1.431       .  S
N1428      O1432   1.262       .  A
N1428      O1433   1.262       .  A
N1431      O1646   1.262       .  A
N1431      O1645   1.262       .  A
O1434      N1642   1.262       .  A
O1435      N1642   1.262       .  A
C1436      C1437   1.407       .  A
C1436      C1441   1.407       .  A
C1436      H1443   1.084       .  S
C1437      C1438   1.412       .  A
C1438      C1439   1.398       .  A
C1438      N1445   1.427       .  S
C1439      C1440   1.396       .  A
C1439      H1444   1.085       .  S
C1440      C1441   1.408       .  A
C1441      N1442   1.432       .  S
N1442      O1446   1.262       .  A
N1442      O1447   1.262       .  A
N1445      O1449   1.262       .  A
N1445      O1448   1.262       .  A
C1450      C1451   1.408       .  A
C1450      C1455   1.413       .  A
C1450      H1457   1.083       .  S
C1451      C1452   1.415       .  A
C1452      C1453   1.392       .  A
C1452      N1459   1.437       .  S
C1453      C1454   1.400       .  A
C1453      H1458   1.085       .  S
C1454      C1455   1.413       .  A
C1455      N1456   1.429       .  S
N1456      O1460   1.261       .  A
N1456      O1461   1.262       .  A
N1459      O1463   1.262       .  A
N1459      O1462   1.263       .  A
C1464      C1465   1.397       .  A
C1464      C1469   1.395       .  A
C1464      H1471   1.084       .  S
C1465      C1466   1.408       .  A
C1466      C1467   1.402       .  A
C1466      N1473   1.429       .  S
C1467      C1468   1.406       .  A
C1467      H1472   1.084       .  S
C1468      C1469   1.409       .  A
C1469      N1470   1.424       .  S
N1470      O1474   1.261       .  A
N1470      O1475   1.262       .  A
N1473      O1477   1.262       .  A
N1473      O1476   1.262       .  A
C1478      C1479   1.414       .  A
C1478      C1526   1.486       .  S
C1479      C1480   1.409       .  A
C1479      H1484   1.083       .  S
C1480      C1662   1.487       .  S
C1481      C1482   1.393       .  A
C1481      H1485   1.085       .  S
C1482      C1483   1.396       .  A
C1482      C1676   1.471       .  S
C1483      H1486   1.084       .  S
C1487      C1492   1.404       .  A
C1487      C1525   1.479       .  S
C1488      C1489   1.404       .  A
C1488      H1493   1.084       .  S
C1489      C1490   1.402   1_556  A
C1489      C1651   1.482       .  S
C1490      H1494   1.085       .  S
C1491      C1492   1.400       .  A
C1491      C1634   1.473       .  S
C1492      H1495   1.084       .  S
C1496      C1501   1.404       .  A
C1496      C1527   1.481       .  S
C1497      C1498   1.396       .  A
C1497      H1502   1.084       .  S
C1498      C1499   1.404       .  A
C1498      C1620   1.476       .  S
C1499      H1503   1.084       .  S
C1500      C1501   1.401       .  A
C1500      C1609   1.476       .  S
C1501      H1504   1.084       .  S
N1505      C1510   1.356       .  A
N1505      C1509   1.355       .  A
N1505      H1537   1.037       .  S
N1506      C1513   1.350       .  A
N1506      C1514   1.350       .  A
N1507      C1512   1.352       .  A
N1507      C1511   1.355       .  A
N1508      C1515   1.352       .  A
N1508      C1516   1.351       .  A
C1509      C1517   1.388       .  A
C1510      C1526   1.420       .  A
C1510      C1518   1.387       .  A
C1511      C1519   1.385       .  A
C1512      C1527   1.419       .  A
C1512      C1520   1.390       .  A
C1513      C1525   1.413       .  A
C1513      C1521   1.387       .  A
C1514      C1522   1.387       .  A
C1515      C1523   1.387       .  A
C1515      C1526   1.414       .  A
C1516      C1524   1.387       .  A
C1517      C1518   1.375       .  A
C1518      H1530   1.082       .  S
C1519      C1520   1.372       .  A
C1519      H1531   1.082       .  S
C1520      H1532   1.082       .  S
C1521      C1522   1.369       .  A
C1521      H1533   1.083       .  S
C1522      H1534   1.082       .  S
C1523      C1524   1.372       .  A
C1523      H1535   1.082       .  S
C1524      H1536   1.082       .  S
C1528      C1539   1.483       .  S
C1539      C1540   1.409       .  A
C1540      C1541   1.407       .  A
C1540      H1545   1.083       .  S
C1541      C1578   1.490       .  S
C1542      C1543   1.400       .  A
C1542      H1546   1.084       .  S
C1543      C1544   1.396       .  A
C1543      C1592   1.472       .  S
C1544      H1547   1.084       .  S
O1548      C1556   1.263       .  A
O1548     Co1568   1.983       .  S
O1549      C1557   1.257       .  A
O1549     Co1569   1.984       .  S
O1550      C1558   1.269       .  A
O1550     Co1570   1.918       .  S
O1551      C1559   1.280       .  A
O1551     Co1571   2.014       .  S
O1552      C1558   1.293       .  A
O1552     Co1569   2.088       .  S
O1553      C1559   1.274       .  A
O1553     Co1568   1.976       .  S
O1554      C1557   1.255       .  A
O1554     Co1571   1.982       .  S
O1555      C1556   1.266       .  A
O1555     Co1570   2.005       .  S
C1556      C1648   1.483       .  S
C1557      C1581   1.482       .  S
C1558      C1637   1.480       .  S
C1559      C1595   1.468       .  S
O1560      C1573   1.252       .  A
O1560     Co1568   1.972       .  S
O1561      C1574   1.271       .  A
O1561     Co1569   1.890       .  S
O1562      C1575   1.265       .  A
O1562     Co1570   1.989       .  S
O1563      C1576   1.279       .  A
O1563     Co1571   1.881       .  S
O1564      C1576   1.309       .  A
O1564     Co1569   2.101       .  S
O1565      C1575   1.265       .  A
O1565     Co1568   1.983       .  S
O1566      C1573   1.255       .  A
O1566     Co1571   2.014       .  S
O1567      C1574   1.296       .  A
O1567     Co1570   2.084       .  S
Co1568     O1572   2.038       .  S
Co1569     O1572   2.075       .  S
Co1570     O1572   2.018       .  S
Co1571     O1572   1.900       .  S
C1573      C1623   1.474       .  S
C1574      C1665   1.478       .  S
C1575      C1679   1.483       .  S
C1576      C1606   1.489       .  S
C1577      C1578   1.404       .  A
C1577      C1582   1.403       .  A
C1577      H1584   1.084       .  S
C1578      C1579   1.415       .  A
C1579      C1580   1.400       .  A
C1579      N1586   1.432       .  S
C1580      C1581   1.403       .  A
C1580      H1585   1.084       .  S
C1581      C1582   1.414       .  A
C1582      N1583   1.429       .  S
N1583      O1587   1.262       .  A
N1583      O1588   1.262       .  A
N1586      O1590   1.262       .  A
N1586      O1589   1.262       .  A
C1591      C1592   1.400       .  A
C1591      C1596   1.402       .  A
C1591      H1598   1.084       .  S
C1592      C1593   1.405       .  A
C1593      C1594   1.400       .  A
C1593      N1600   1.430       .  S
C1594      C1595   1.402       .  A
C1594      H1599   1.082       .  S
C1595      C1596   1.413       .  A
C1596      N1597   1.434       .  S
N1597      O1601   1.262       .  A
N1597      O1602   1.261       .  A
N1600      O1604   1.262       .  A
N1600      O1603   1.262       .  A
C1605      C1606   1.409       .  A
C1605      C1610   1.401       .  A
C1605      H1612   1.083       .  S
C1606      C1607   1.416       .  A
C1607      C1608   1.402       .  A
C1607      N1614   1.430       .  S
C1608      C1609   1.400       .  A
C1608      H1613   1.084       .  S
C1609      C1610   1.406       .  A
C1610      N1611   1.430       .  S
N1611      O1615   1.262       .  A
N1611      O1616   1.262       .  A
N1614      O1618   1.262       .  A
N1614      O1617   1.262       .  A
C1619      C1620   1.402       .  A
C1619      C1624   1.411       .  A
C1619      H1626   1.083       .  S
C1620      C1621   1.402       .  A
C1621      C1622   1.397       .  A
C1621      N1628   1.429       .  S
C1622      C1623   1.405       .  A
C1622      H1627   1.083       .  S
C1623      C1624   1.414       .  A
C1624      N1625   1.439       .  S
N1625      O1629   1.263       .  A
N1625      O1630   1.262       .  A
N1628      O1632   1.262       .  A
N1628      O1631   1.260       .  A
C1633      C1634   1.399       .  A
C1633      C1638   1.401       .  A
C1633      H1640   1.084       .  S
C1634      C1635   1.407       .  A
C1635      C1636   1.403       .  A
C1635      N1642   1.430       .  S
C1636      C1637   1.406       .  A
C1636      H1641   1.084       .  S
C1637      C1638   1.414       .  A
C1638      N1639   1.434       .  S
N1639      O1643   1.262       .  A
N1639      O1644   1.262       .  A
C1647      C1648   1.409       .  A
C1647      C1652   1.410       .  A
C1647      H1654   1.084       .  S
C1648      C1649   1.416       .  A
C1649      C1650   1.396       .  A
C1649      N1656   1.432       .  S
C1650      C1651   1.399       .  A
C1650      H1655   1.085       .  S
C1651      C1652   1.411       .  A
C1652      N1653   1.431       .  S
N1653      O1657   1.262       .  A
N1653      O1658   1.262       .  A
N1656      O1660   1.262       .  A
N1656      O1659   1.262       .  A
C1661      C1662   1.407       .  A
C1661      C1666   1.412       .  A
C1661      H1668   1.083       .  S
C1662      C1663   1.415       .  A
C1663      C1664   1.394       .  A
C1663      N1670   1.437       .  S
C1664      C1665   1.400       .  A
C1664      H1669   1.085       .  S
C1665      C1666   1.413       .  A
C1666      N1667   1.431       .  S
N1667      O1671   1.262       .  A
N1667      O1672   1.262       .  A
N1670      O1674   1.262       .  A
N1670      O1673   1.263       .  A
C1675      C1676   1.398       .  A
C1675      C1680   1.396       .  A
C1675      H1682   1.084       .  S
C1676      C1677   1.408       .  A
C1677      C1678   1.402       .  A
C1677      N1684   1.429       .  S
C1678      C1679   1.406       .  A
C1678      H1683   1.084       .  S
C1679      C1680   1.412       .  A
C1680      N1681   1.425       .  S
N1681      O1685   1.261       .  A
N1681      O1686   1.262       .  A
N1684      O1688   1.262       .  A
N1684      O1687   1.262       .  A
