geometry optimzed in LAMMPS
_audit_creation_date              2020-11-30 
_audit_creation_method            'lammps2cif' 
_symmetry_space_group_name_H-M    'P1' 
_symmetry_Int_Tables_number       1 
_symmetry_cell_setting            triclinic 
loop_ 
_symmetry_equiv_pos_as_xyz 
  x,y,z 
_cell_length_a                    50.61980354 
_cell_length_b                    46.34045031127919 
_cell_length_c                    31.828018288263916 
_cell_angle_alpha                 75.15211423713906 
_cell_angle_beta                  75.54267623560301 
_cell_angle_gamma                 91.07185756844414 
loop_ 
_atom_site_label 
_atom_site_type_symbol 
_atom_site_fract_x 
_atom_site_fract_y 
_atom_site_fract_z 
_atom_site_charge 
N1          N  0.31493825  0.39721299  0.98280148    -0.03400
C2          C  0.32476382  0.42493842  0.98247739    -0.00800
C3          C  0.34098709  0.43720585  0.42026038    -0.23700
C4          C  0.32654582  0.42100819  0.40212602    -0.23900
C5          C  0.31856803  0.39353085  0.43330572    -0.00900
H6          H  0.35210755  0.45894376  0.40312093     0.12900
H7          H  0.32287186  0.42819801  0.36908798     0.12900
N8          N  0.11872960  0.36665665  0.03064874    -0.03400
C9          C  0.10927469  0.39294783  0.01139712    -0.00800
C10         C  0.11553169  0.41542570  0.02962738    -0.23700
C11         C  0.12611281  0.40251750  0.06431394    -0.23900
C12         C  0.12779714  0.37272833  0.06482231    -0.00900
H13         H  0.10849611  0.43767317  0.02379733     0.12900
H14         H  0.13063723  0.41356280  0.08813670     0.12900
N15         N  0.36139476  0.18500791  0.00241498    -0.03400
C16         C  0.38740328  0.17760031  0.98800547    -0.00800
C17         C  0.40352386  0.18515659  0.01359945    -0.23700
C18         C  0.38691545  0.19580213  0.04606728    -0.23900
C19         C  0.36114876  0.19510395  0.03903125    -0.00900
H20         H  0.42420447  0.17931988  0.01303175     0.12900
H21         H  0.39263461  0.20162633  0.07362898     0.12900
N22         N  0.02298509  0.01326662  0.50206564    -0.36500
N23         N  0.48088026  0.47598389  0.49853458    -0.57100
N24         N  0.44315481  0.01990576  0.47224791    -0.36500
N25         N  0.48404703  0.05534020  0.49153624    -0.57100
C26         C  0.02452372  0.47815910  0.51623764     0.27100
C27         C  0.03768866  0.03446002  0.00615696     0.27100
C28         C  0.43208635  0.50481857  0.48159570     0.27100
C29         C  0.43393435  0.04723085  0.46003096     0.27100
C30         C  0.98626020  0.44612737  0.51139821     0.35700
C31         C  0.45767404  0.46039374  0.50044894     0.35700
C32         C  0.50396711  0.06754909  0.01102865     0.35700
C33         C  0.46749823  0.07730977  0.48163417     0.35700
C34         C  0.05842030  0.98982104  0.52032826    -0.21800
C35         C  0.05862626  0.02054751  0.02236618    -0.21800
C36         C  0.41451824  0.51948932  0.45779437    -0.21800
C37         C  0.41189993  0.04477280  0.44209704    -0.21800
C38         C  0.97381064  0.41798543  0.51729997    -0.22800
C39         C  0.46190759  0.43042272  0.50477763    -0.22800
C40         C  0.49834907  0.09573883  0.01666779    -0.22800
C41         C  0.47362831  0.10142898  0.00715733    -0.22800
C42         C  0.01426055  0.45230408  0.50736841    -0.18200
C43         C  0.03150430  0.06438850  0.00639693    -0.18200
C44         C  0.44322046  0.07399042  0.46771153    -0.18200
C45         C  0.43408663  0.47362180  0.49188069    -0.18200
H46         H  0.07242786  0.97292252  0.52700937     0.14700
H47         H  0.07289524  0.02959383  0.03692236     0.14700
H48         H  0.40077064  0.50978144  0.44293963     0.14700
H49         H  0.39996185  0.06246720  0.42940068     0.14700
H50         H  0.98339262  0.39727837  0.51768315     0.13000
H51         H  0.44736710  0.41244100  0.50658098     0.13000
H52         H  0.51055026  0.11052439  0.02726606     0.13000
H53         H  0.46307029  0.12130936  0.00928679     0.13000
H54         H  0.00641039  0.01830576  0.48874808     0.26300
H55         H  0.45736658  0.01419673  0.49073138     0.26300
N56         N  0.11144091  0.12221472  0.11544989    -0.03400
C57         C  0.08931141  0.10294743  0.12100814    -0.00800
C58         C  0.08093249  0.08602853  0.16549656    -0.23700
C59         C  0.09741993  0.09586579  0.18814998    -0.23900
C60         C  0.11633574  0.11778031  0.15679146    -0.00900
H61         H  0.06417785  0.06864553  0.18031905     0.12900
H62         H  0.09527821  0.08827060  0.22402440     0.12900
O63         O  0.26711469  0.31863473  0.33160566    -0.75200
O64         O  0.24819469  0.28554286  0.40030010    -0.54100
C65         C  0.26212353  0.30995065  0.37473847     0.78500
O66         O  0.16417677  0.30116842  0.24049927    -0.59800
O67         O  0.18865600  0.27941231  0.18795959    -0.52800
C68         C  0.17093185  0.29692993  0.20104872     0.70600
O69         O  0.16489351  0.29875538  0.38116565    -0.74300
O70         O  0.18995041  0.27569463  0.42840957    -0.54900
C71         C  0.17176701  0.29359512  0.41855319     0.76600
O72         O  0.27088529  0.31937877  0.18871169    -0.59500
O73         O  0.24871674  0.28973056  0.15881893    -0.52600
C74         C  0.26506244  0.31239042  0.15514530     0.73200
Zr75       Zr  0.25757009  0.30093222  0.27112799     2.54700
O76         O  0.25049788  0.35404110  0.25381438    -0.80100
O77         O  0.30730685  0.30986974  0.24990314    -0.93500
Zr78       Zr  0.17656967  0.28377169  0.31094753     2.64700
O79         O  0.16379802  0.33513310  0.29649002    -0.98400
O80         O  0.12861738  0.26423330  0.33833790    -0.80500
O81         O  0.21728900  0.29216380  0.33171574    -0.83800
O82         O  0.21687788  0.29416147  0.25010319    -2.18600
O83         O  0.28504953  0.21321382  0.21922075    -0.67200
O84         O  0.25536095  0.22892657  0.17614780    -0.51800
C85         C  0.27787514  0.21863618  0.18200542     0.71500
O86         O  0.16972403  0.18046962  0.41634788    -0.60100
O87         O  0.19347054  0.20803657  0.44754373    -0.52100
C88         C  0.17559051  0.18711667  0.45002859     0.73300
O89         O  0.17327282  0.18149757  0.27221425    -0.71500
O90         O  0.19459924  0.21378194  0.20423961    -0.50200
C91         C  0.17850406  0.19052241  0.22881333     0.74700
O92         O  0.28343303  0.20318522  0.36481294    -0.66900
O93         O  0.25728817  0.22302923  0.41827090    -0.54100
C94         C  0.27778458  0.20880445  0.40359015     0.73100
Zr95       Zr  0.26560754  0.21339336  0.29782290     2.77500
O96         O  0.26290745  0.15906928  0.31270268    -0.97600
O97         O  0.31532377  0.21408765  0.27935480    -0.78400
Zr98       Zr  0.18494675  0.19700525  0.33436336     2.70100
O99         O  0.19172778  0.14383156  0.35161620    -0.79700
O100        O  0.13531962  0.18706324  0.35469621    -0.98800
Zr101      Zr  0.22158029  0.24725919  0.38555747     2.21500
Zr102      Zr  0.22101415  0.25091053  0.22231868     2.11100
O103        O  0.22558298  0.20534159  0.27477518    -2.47500
O104        O  0.22524126  0.20357606  0.35826989    -0.79500
O105        O  0.26200793  0.25807666  0.24362421    -0.71700
O106        O  0.18052005  0.23937296  0.36429288    -2.32600
O107        O  0.26236204  0.25668386  0.32502150    -2.28800
O108        O  0.17977363  0.24146625  0.28136536    -0.73400
H109        H  0.21560284  0.31180818  0.22705113     0.78600
H110        H  0.16464895  0.23616760  0.38974283     0.79700
H111        H  0.22743933  0.18890402  0.26103161     0.81900
H112        H  0.27830557  0.25999972  0.33523408     0.79500
H113        H  0.12077238  0.27198308  0.31249627     0.42500
H114        H  0.12944885  0.20090354  0.33005276     0.41500
H115        H  0.17302811  0.13359852  0.36077158     0.41200
H116        H  0.28134453  0.15373491  0.31559995     0.39100
H117        H  0.32151735  0.23283626  0.28491122     0.42200
H118        H  0.31371149  0.29705038  0.22947248     0.37000
H119        H  0.23064767  0.35461925  0.26682026     0.43100
H120        H  0.14522787  0.33399618  0.31678419     0.39600
H121        H  0.25087679  0.15162240  0.34368520     0.44500
H122        H  0.31285530  0.30023241  0.27756215     0.43200
H123        H  0.17582138  0.34582821  0.30887407     0.43300
H124        H  0.13210800  0.16689651  0.35073947     0.43700
C125        C  0.16502025  0.17253312  0.20600803    -0.06000
C126        C  0.16337467  0.14116624  0.22120538    -0.17100
C127        C  0.15005091  0.12287454  0.20250779     0.11200
C128        C  0.13643131  0.13593008  0.16928428    -0.05900
C129        C  0.13909265  0.16729478  0.15267590    -0.17200
C130        C  0.15347236  0.18558538  0.17004540     0.11200
S131        S  0.15196897  0.08301180  0.22178724    -0.32100
S132        S  0.15472511  0.22542916  0.14662615    -0.32100
H133        H  0.14929806  0.23177688  0.18870092     0.29200
H134        H  0.15059979  0.07702757  0.18118354     0.29200
H135        H  0.17296926  0.13073826  0.24751420     0.19800
H136        H  0.12865703  0.17789111  0.12771550     0.19800
C137        C  0.12853916  0.14115337  0.07378488    -0.06000
C138        C  0.15615204  0.13573903  0.06015415    -0.17100
C139        C  0.17367672  0.15316085  0.01972168     0.11200
C140        C  0.16009839  0.16963120  0.49499571    -0.05900
C141        C  0.13253732  0.17461719  0.51040445    -0.17200
C142        C  0.11845325  0.16511811  0.04666851     0.11200
S143        S  0.20851142  0.14337401  0.00514422    -0.32100
S144        S  0.08420285  0.17583350  0.06359331    -0.32100
H145        H  0.08158585  0.16606492  0.11018312     0.29200
H146        H  0.20907186  0.14587892  0.45971924     0.29200
H147        H  0.16399128  0.11752363  0.08119033     0.19800
H148        H  0.12329656  0.19113763  0.48896772     0.19800
C149        C  0.04689173  0.08041930  0.02988794    -0.06000
C150        C  0.03242049  0.08464625  0.07118494    -0.17100
C151        C  0.04563271  0.09543715  0.09840551     0.11200
C152        C  0.07465095  0.09985799  0.08660622    -0.05900
C153        C  0.08918829  0.09740543  0.04390579    -0.17200
C154        C  0.07545840  0.08875055  0.01481761     0.11200
S155        S  0.02383140  0.10335837  0.14766037    -0.32100
S156        S  0.09454539  0.08706807  0.95955115    -0.32100
H157        H  0.11948535  0.10052422  0.96043796     0.29200
H158        H  0.04185831  0.12637524  0.14892041     0.29200
H159        H  0.01043623  0.07917443  0.08265686     0.19800
H160        H  0.11129670  0.10096433  0.03405419     0.19800
C161        C  0.39442708  0.15096217  0.97157626    -0.06000
C162        C  0.38207611  0.12355503  0.00162694    -0.17100
C163        C  0.39659117  0.09814238  0.00704439     0.11200
C164        C  0.42301983  0.09897010  0.97820122    -0.05900
C165        C  0.43419975  0.12621717  0.43039264    -0.17200
C166        C  0.41913641  0.15136690  0.42990506     0.11200
S167        S  0.38155226  0.06679071  0.05496107    -0.32100
S168        S  0.43466467  0.18660592  0.39095671    -0.32100
H169        H  0.41056502  0.20149323  0.39599120     0.29200
H170        H  0.40632782  0.05897979  0.06539728     0.29200
H171        H  0.36284095  0.12306955  0.02615899     0.19800
H172        H  0.45398505  0.12829556  0.40634218     0.19800
C173        C  0.29762023  0.21414680  0.14244305    -0.06000
C174        C  0.29284224  0.18995396  0.12570178    -0.17100
C175        C  0.31261911  0.18361586  0.09054179     0.11200
C176        C  0.33707419  0.20281187  0.07026471    -0.05900
C177        C  0.34073415  0.22814523  0.08542755    -0.17200
C178        C  0.32147087  0.23378062  0.12160742     0.11200
S179        S  0.30674947  0.14904047  0.07716619    -0.32100
S180        S  0.32772248  0.26568158  0.14175375    -0.32100
H181        H  0.35169767  0.27827204  0.10772169     0.29200
H182        H  0.33264774  0.13991114  0.08026049     0.29200
H183        H  0.27437297  0.17493738  0.14189483     0.19800
H184        H  0.35940623  0.24287368  0.07000844     0.19800
C185        C  0.29746960  0.20000332  0.43174854    -0.06000
C186        C  0.30936008  0.22246432  0.44524489    -0.17100
C187        C  0.33421962  0.22108084  0.96148224     0.11200
C188        C  0.34196865  0.19159726  0.97523282    -0.05900
C189        C  0.32841211  0.16565829  0.46267017    -0.17200
C190        C  0.30734321  0.17121947  0.44051303     0.11200
S191        S  0.35149102  0.25345843  0.96778317    -0.32100
S192        S  0.29372193  0.14054612  0.42473728    -0.32100
H193        H  0.26730447  0.15017207  0.42769461     0.29200
H194        H  0.37743905  0.24234305  0.96160222     0.29200
H195        H  0.30287754  0.24488274  0.43712595     0.19800
H196        H  0.33520234  0.14338547  0.46999413     0.19800
C197        C  0.03315531  0.42847165  0.50218982    -0.06000
C198        C  0.03615506  0.40648094  0.03186321    -0.17100
C199        C  0.05827239  0.38929392  0.03592316     0.11200
C200        C  0.08263534  0.39558416  0.00021209    -0.05900
C201        C  0.07726580  0.41544584  0.46394423    -0.17200
C202        C  0.05451190  0.43204238  0.46257294     0.11200
S203        S  0.05697567  0.36400022  0.09018384    -0.32100
S204        S  0.05546240  0.46023019  0.41116207    -0.32100
H205        H  0.04637787  0.97250166  0.40880035     0.28900
H206        H  0.02851070  0.36285562  0.10840445     0.29200
H207        H  0.01882920  0.40416457  0.06083137     0.19800
H208        H  0.09493911  0.42083600  0.43497030     0.19800
C209        C  0.15921163  0.31575059  0.16726294    -0.06000
C210        C  0.14024087  0.30310627  0.15038464    -0.17100
C211        C  0.12914030  0.32084046  0.11732264     0.11200
C212        C  0.13878722  0.35152476  0.09877624    -0.05900
C213        C  0.15815037  0.36369751  0.11596018    -0.17200
C214        C  0.16721571  0.34660249  0.15152674     0.11200
S215        S  0.10131502  0.30434035  0.10272781    -0.32100
S216        S  0.18898587  0.36444656  0.17664845    -0.32100
H217        H  0.18770867  0.39414413  0.15238050     0.29200
H218        H  0.10068488  0.27505349  0.13004154     0.29200
H219        H  0.13319148  0.27968119  0.16476839     0.19800
H220        H  0.16604124  0.38695162  0.10199962     0.19800
C221        C  0.15768265  0.31032479  0.45124183    -0.06000
C222        C  0.12992856  0.31525298  0.45480983    -0.17100
C223        C  0.11591123  0.33272760  0.48205306     0.11200
C224        C  0.13025335  0.34807025  0.50417556    -0.05900
C225        C  0.15809255  0.34300860  0.50022115    -0.17200
C226        C  0.17136816  0.32361294  0.47620631     0.11200
S227        S  0.08248488  0.33132546  0.98549279    -0.32100
S228        S  0.20601609  0.31767598  0.47839970    -0.32100
H229        H  0.21509610  0.32170160  0.43205922     0.29200
H230        H  0.07558383  0.32843845  0.03184235     0.29200
H231        H  0.11873648  0.30461847  0.43706102     0.19800
H232        H  0.17010320  0.35458215  0.51560175     0.19800
C233        C  0.41124633  0.45467804  0.48864759    -0.06000
C234        C  0.38029152  0.45654652  0.02225306    -0.17100
C235        C  0.35448538  0.44388915  0.02443309     0.11200
C236        C  0.36499453  0.42520143  0.47915598    -0.05900
C237        C  0.39108768  0.42522335  0.45032922    -0.17200
C238        C  0.41386321  0.44107921  0.45315649     0.11200
S239        S  0.32607409  0.44617605  0.07040862    -0.32100
S240        S  0.44467812  0.44567965  0.40783777    -0.32100
H241        H  0.45314986  0.47486503  0.40730909     0.29200
H242        H  0.30760332  0.42511235  0.06539598     0.29200
H243        H  0.38237422  0.46736020  0.04782989     0.19800
H244        H  0.39308477  0.41559846  0.42211717     0.19800
C245        C  0.30406035  0.37304948  0.02400255    -0.06000
C246        C  0.27634102  0.36195462  0.03502147    -0.17100
C247        C  0.26360712  0.34115565  0.07596673     0.11200
C248        C  0.27804864  0.33217613  0.10921916    -0.05900
C249        C  0.30579184  0.34255439  0.09833461    -0.17200
C250        C  0.31922945  0.36144389  0.05576845     0.11200
S251        S  0.22857169  0.32804113  0.08362490    -0.32100
S252        S  0.35589843  0.36665918  0.04394695    -0.32100
H253        H  0.36076110  0.37034827  0.99754205     0.29200
H254        H  0.22040108  0.32839322  0.12877226     0.29200
H255        H  0.26392908  0.37020086  0.01207686     0.19800
H256        H  0.31748890  0.33477546  0.12268248     0.19800
C257        C  0.30182303  0.37010522  0.42518530    -0.06000
C258        C  0.28074219  0.37949896  0.40478407    -0.17100
C259        C  0.26682170  0.36015843  0.38908168     0.11200
C260        C  0.27311725  0.33004114  0.39603289    -0.05900
C261        C  0.29261916  0.31989170  0.41953604    -0.17200
C262        C  0.30775674  0.33983744  0.43273258     0.11200
S263        S  0.24219942  0.37614462  0.35909691    -0.32100
S264        S  0.33639142  0.32612441  0.45332566    -0.32100
H265        H  0.34915542  0.37029716  0.92749476     0.29200
H266        H  0.22853827  0.34965957  0.35867550     0.29200
H267        H  0.27579547  0.40259804  0.39929262     0.19800
H268        H  0.29777209  0.29693458  0.42404111     0.19800
N269        N  0.32767307  0.39185239  0.47067407    -0.03400
C270        C  0.34188023  0.41903213  0.46169871    -0.00800
C271        C  0.31805458  0.44679784  0.94909429    -0.23700
C272        C  0.30573744  0.43249449  0.92569387    -0.23900
C273        C  0.30441924  0.40221371  0.94623223    -0.00900
H274        H  0.32548318  0.47029478  0.93813600     0.12900
H275        H  0.30019757  0.44306212  0.89497763     0.12900
N276        N  0.11786161  0.36868406  0.53011072    -0.03400
C277        C  0.10699110  0.39432462  0.51200455    -0.00800
C278        C  0.11370020  0.41739746  0.52875187    -0.23700
C279        C  0.12600248  0.40545578  0.56166380    -0.23900
C280        C  0.12828977  0.37566865  0.56246667    -0.00900
H281        H  0.10585851  0.43927065  0.52363334     0.12900
H282        H  0.13115815  0.41711500  0.58434832     0.12900
N283        N  0.36164376  0.18196135  0.49988057    -0.03400
C284        C  0.38738957  0.17476126  0.48254827    -0.00800
C285        C  0.40494417  0.18153996  0.50647288    -0.23700
C286        C  0.38970187  0.19157527  0.54073412    -0.23900
C287        C  0.36324807  0.19133077  0.53651810    -0.00900
H288        H  0.42586579  0.17578906  0.50321910     0.12900
H289        H  0.39687272  0.19693763  0.56738694     0.12900
N290        N  0.02384597  0.01449183  0.99283396    -0.36500
N291        N  0.47600846  0.47485402  0.98743890    -0.57100
N292        N  0.43768452  0.01814482  0.99647199    -0.36500
N293        N  0.48367155  0.05626369  0.99759811    -0.57100
C294        C  0.02923531  0.48019187  0.00397499     0.27100
C295        C  0.03685199  0.03130241  0.51844465     0.27100
C296        C  0.42834518  0.50648776  0.96938566     0.27100
C297        C  0.42968395  0.04557492  0.98015799     0.27100
C298        C  0.99118835  0.44762756  0.99808288     0.35700
C299        C  0.45194710  0.46053189  0.98999127     0.35700
C300        C  0.50400772  0.06702333  0.50534578     0.35700
C301        C  0.46490587  0.07659910  0.99586702     0.35700
C302        C  0.05768553  0.99187624  0.01826502    -0.21800
C303        C  0.05889325  0.01695431  0.53004489    -0.21800
C304        C  0.41010198  0.52141188  0.94733070    -0.21800
C305        C  0.40743906  0.04259457  0.96300052    -0.21800
C306        C  0.97860708  0.41940426  0.00453633    -0.22800
C307        C  0.45455132  0.43014754  0.99579862    -0.22800
C308        C  0.50055131  0.09696921  0.50299996    -0.22800
C309        C  0.47733823  0.10335659  0.48858587    -0.22800
C310        C  0.01895276  0.45377986  0.99615897    -0.18200
C311        C  0.02979642  0.05972655  0.52533794    -0.18200
C312        C  0.44001331  0.07300730  0.98426511    -0.18200
C313        C  0.42858202  0.47499165  0.98257925    -0.18200
H314        H  0.07084983  0.97503187  0.02927528     0.14700
H315        H  0.07359330  0.02472592  0.54509171     0.14700
H316        H  0.39449578  0.51166498  0.93596835     0.14700
H317        H  0.39624219  0.06025747  0.94799414     0.14700
H318        H  0.98787791  0.39838489  0.00749542     0.13000
H319        H  0.43901300  0.41290754  0.99853611     0.13000
H320        H  0.51293178  0.11246003  0.51206166     0.13000
H321        H  0.46858767  0.12469055  0.48448291     0.13000
H322        H  0.00800688  0.01845095  0.97735013     0.26300
H323        H  0.45176205  0.01311917  0.01556446     0.26300
N324        N  0.11370290  0.11941828  0.62495676    -0.03400
C325        C  0.09231476  0.09839194  0.63428699    -0.00800
C326        C  0.08732086  0.08142947  0.67861216    -0.23700
C327        C  0.10521706  0.09294994  0.69738947    -0.23900
C328        C  0.12156107  0.11595305  0.66371629    -0.00900
H329        H  0.07214727  0.06262357  0.69581486     0.12900
H330        H  0.10585311  0.08553490  0.73220143     0.12900
O331        O  0.27140870  0.32532403  0.82286639    -0.75200
O332        O  0.25256378  0.29249992  0.89189599    -0.54100
C333        C  0.26576039  0.31728097  0.86606319     0.78500
O334        O  0.17003213  0.30693003  0.73391069    -0.59800
O335        O  0.19462723  0.28506369  0.68153361    -0.52800
C336        C  0.17688631  0.30268026  0.69444447     0.70600
O337        O  0.17007698  0.30316122  0.87560596    -0.74300
O338        O  0.19516950  0.28001151  0.92279523    -0.54900
C339        C  0.17666907  0.29748922  0.91333020     0.76600
O340        O  0.27917978  0.32119621  0.68114784    -0.59500
O341        O  0.25506923  0.29305040  0.65175029    -0.52600
C342        C  0.27280040  0.31463250  0.64771400     0.73200
Zr343      Zr  0.26453914  0.30434775  0.76379447     2.54700
O344        O  0.26196315  0.35826734  0.73964485    -0.80100
O345        O  0.31422869  0.30901285  0.74890375    -0.93500
Zr346      Zr  0.18336180  0.29018358  0.80364913     2.64700
O347        O  0.17996592  0.34409810  0.78589352    -0.98400
O348        O  0.13398344  0.27794134  0.82842000    -0.80500
O349        O  0.22424842  0.29702105  0.82428863    -0.83800
O350        O  0.22358310  0.29879610  0.74283252    -2.18600
O351        O  0.28948414  0.21565042  0.71518409    -0.67200
O352        O  0.26020746  0.23165572  0.67143807    -0.51800
C353        C  0.28242966  0.22078301  0.67792379     0.71500
O354        O  0.17424393  0.18609575  0.91259253    -0.60100
O355        O  0.19720326  0.21474795  0.94321667    -0.52100
C356        C  0.17956342  0.19335082  0.94626873     0.73300
O357        O  0.17845727  0.18544384  0.76896626    -0.71500
O358        O  0.19955948  0.21728513  0.70030378    -0.50200
C359        C  0.18387763  0.19386963  0.72555157     0.74700
O360        O  0.28747757  0.20613127  0.86031755    -0.66900
O361        O  0.26180094  0.22717633  0.91273086    -0.54100
C362        C  0.28185384  0.21225793  0.89871043     0.73100
Zr363      Zr  0.26986696  0.21643743  0.79329140     2.77500
O364        O  0.26438701  0.16216549  0.80810174    -0.97600
O365        O  0.31907180  0.21253488  0.77639334    -0.78400
Zr366      Zr  0.18941357  0.20230960  0.83020592     2.70100
O367        O  0.19644072  0.14919804  0.84930986    -0.79700
O368        O  0.13987386  0.19177342  0.84987647    -0.98800
Zr369      Zr  0.22689980  0.25225064  0.87953994     2.21500
Zr370      Zr  0.22634423  0.25514002  0.71629458     2.11100
O371        O  0.22974378  0.20962620  0.77019088    -2.47500
O372        O  0.22975171  0.20792289  0.85402404    -0.79500
O373        O  0.26755415  0.26098039  0.73770473    -0.71700
O374        O  0.18586363  0.24549054  0.85792024    -2.32600
O375        O  0.26797226  0.26025694  0.81934076    -2.28800
O376        O  0.18530399  0.24695639  0.77598460    -0.73400
H377        H  0.22267266  0.31636121  0.71934872     0.78600
H378        H  0.16993337  0.24272565  0.88317997     0.79700
H379        H  0.23127768  0.19294667  0.75697411     0.81900
H380        H  0.28393757  0.26333330  0.82963810     0.79500
H381        H  0.13133006  0.25760486  0.82472231     0.42500
H382        H  0.13656441  0.17017918  0.86603885     0.41500
H383        H  0.20949127  0.14727027  0.86823116     0.41200
H384        H  0.28236376  0.15689433  0.79243051     0.39100
H385        H  0.32709713  0.23324233  0.77084856     0.42200
H386        H  0.32049944  0.32607309  0.72162757     0.37000
H387        H  0.24291043  0.36059137  0.73744458     0.43100
H388        H  0.16052719  0.34634875  0.79945859     0.39600
H389        H  0.26343097  0.15450898  0.84052421     0.44500
H390        H  0.32009348  0.29118210  0.73852352     0.43200
H391        H  0.19019384  0.35136685  0.80448545     0.43300
H392        H  0.13269651  0.20214826  0.87342846     0.43700
C393        C  0.17120196  0.17476311  0.70363795    -0.06000
C394        C  0.17192291  0.14360696  0.71821807    -0.17100
C395        C  0.15873679  0.12415935  0.70121312     0.11200
C396        C  0.14246332  0.13569471  0.67153006    -0.05900
C397        C  0.14336411  0.16693464  0.65446435    -0.17200
C398        C  0.15801403  0.18649543  0.66938366     0.11200
S399        S  0.16433478  0.08499016  0.71739166    -0.32100
S400        S  0.15765239  0.22607042  0.64527258    -0.32100
H401        H  0.15309507  0.23329653  0.68664851     0.29200
H402        H  0.16105499  0.07915775  0.67761813     0.29200
H403        H  0.18323639  0.13434162  0.74260775     0.19800
H404        H  0.13129218  0.17634694  0.63142175     0.19800
C405        C  0.12898188  0.13753130  0.58138401    -0.06000
C406        C  0.15663652  0.13284722  0.56588497    -0.17100
C407        C  0.17229473  0.14859984  0.52305652     0.11200
C408        C  0.16324768  0.17629832  0.99156644    -0.05900
C409        C  0.13568572  0.18195700  0.00548652    -0.17200
C410        C  0.11698350  0.15921423  0.55365481     0.11200
S411        S  0.20747871  0.14048651  0.50585586    -0.32100
S412        S  0.08242617  0.16878255  0.57188307    -0.32100
H413        H  0.08078903  0.16024264  0.61819410     0.29200
H414        H  0.22055737  0.17149604  0.97725669     0.29200
H415        H  0.16587007  0.11624264  0.58715804     0.19800
H416        H  0.12760340  0.19983266  0.98422746     0.19800
C417        C  0.04594935  0.07370585  0.54970895    -0.06000
C418        C  0.03305137  0.07440111  0.59372613    -0.17100
C419        C  0.04714688  0.08544592  0.61960349     0.11200
C420        C  0.07582576  0.09328878  0.60333091    -0.05900
C421        C  0.08866140  0.09333837  0.55859268    -0.17200
C422        C  0.07370596  0.08492906  0.53107410     0.11200
S423        S  0.02674852  0.08997407  0.67239954    -0.32100
S424        S  0.09020177  0.08786423  0.47271401    -0.32100
H425        H  0.11433562  0.10432360  0.47076231     0.29200
H426        H  0.04288800  0.11530308  0.67141717     0.29200
H427        H  0.01151560  0.06673729  0.60780580     0.19800
H428        H  0.11049344  0.09891382  0.54544154     0.19800
C429        C  0.39403605  0.14935003  0.46280477    -0.06000
C430        C  0.38307421  0.12111398  0.49166575    -0.17100
C431        C  0.39871036  0.09648894  0.49409331     0.11200
C432        C  0.42509205  0.09919099  0.46404390    -0.05900
C433        C  0.43374049  0.12519972  0.94368697    -0.17200
C434        C  0.42000905  0.15132280  0.94072135     0.11200
S435        S  0.38483377  0.06333005  0.53954885    -0.32100
S436        S  0.43764395  0.18537940  0.90094122    -0.32100
H437        H  0.41461522  0.20201466  0.90339264     0.29200
H438        H  0.40997788  0.05524799  0.54818195     0.29200
H439        H  0.36419014  0.11930761  0.51769109     0.19800
H440        H  0.45377766  0.12588734  0.92093407     0.19800
C441        C  0.30194199  0.21489426  0.63925484    -0.06000
C442        C  0.29577985  0.19070547  0.62339004    -0.17100
C443        C  0.31518327  0.18227850  0.58982541     0.11200
C444        C  0.34057236  0.19971321  0.56952815    -0.05900
C445        C  0.34613602  0.22448524  0.58477760    -0.17200
C446        C  0.32738716  0.23200543  0.61961485     0.11200
S447        S  0.30750096  0.14730575  0.57872756    -0.32100
S448        S  0.33770743  0.26310390  0.63817735    -0.32100
H449        H  0.31133765  0.27113811  0.65469424     0.29200
H450        H  0.33402831  0.13805492  0.57587797     0.29200
H451        H  0.27644376  0.17715780  0.63929785     0.19800
H452        H  0.36561056  0.23788758  0.56988149     0.19800
C453        C  0.30113207  0.20356037  0.92724018    -0.06000
C454        C  0.31346159  0.22643617  0.93925613    -0.17100
C455        C  0.33117911  0.21734316  0.46532776     0.11200
C456        C  0.34042424  0.18830316  0.47594284    -0.05900
C457        C  0.32992153  0.16865934  0.96263156    -0.17200
C458        C  0.30970282  0.17431019  0.93879801     0.11200
S459        S  0.34821510  0.24971158  0.47191681    -0.32100
S460        S  0.29506995  0.14314195  0.92539440    -0.32100
H461        H  0.26918557  0.15393219  0.92663486     0.29200
H462        H  0.37464303  0.24002442  0.46155962     0.29200
H463        H  0.30791647  0.24916899  0.92896764     0.19800
H464        H  0.33573447  0.14607131  0.97238468     0.19800
C465        C  0.03772673  0.42962589  0.99297267    -0.06000
C466        C  0.03322776  0.40553207  0.54053539    -0.17100
C467        C  0.05613909  0.38925713  0.54230910     0.11200
C468        C  0.07932659  0.39577859  0.50439698    -0.05900
C469        C  0.08251912  0.41581338  0.95906851    -0.17200
C470        C  0.06027099  0.43286017  0.95508724     0.11200
S471        S  0.05759248  0.36512982  0.59605814    -0.32100
S472        S  0.06315797  0.46098752  0.90281574    -0.32100
H473        H  0.04496572  0.96788787  0.91026493     0.28900
H474        H  0.02964830  0.36409551  0.61807764     0.29200
H475        H  0.01676974  0.40298490  0.57078898     0.19800
H476        H  0.10108750  0.42098497  0.93171712     0.19800
C477        C  0.16455014  0.32088489  0.66080499    -0.06000
C478        C  0.14576427  0.30722353  0.64476311    -0.17100
C479        C  0.13320239  0.32413981  0.61315173     0.11200
C480        C  0.14091473  0.35531490  0.59518828    -0.05900
C481        C  0.16043078  0.36852782  0.61101101    -0.17200
C482        C  0.17126081  0.35201107  0.64495658     0.11200
S483        S  0.10575425  0.30553670  0.60055444    -0.32100
S484        S  0.19318818  0.37104281  0.66839981    -0.32100
H485        H  0.19596940  0.39931683  0.63720138     0.29200
H486        H  0.11518287  0.27679303  0.60986675     0.29200
H487        H  0.13976995  0.28352533  0.65895987     0.19800
H488        H  0.16702152  0.39213390  0.59738287     0.19800
C489        C  0.16166439  0.31266810  0.94741287    -0.06000
C490        C  0.13370471  0.31632098  0.95125906    -0.17100
C491        C  0.11866126  0.33210984  0.98020525     0.11200
C492        C  0.13196172  0.34650868  0.00467989    -0.05900
C493        C  0.15988871  0.34223879  0.00124846    -0.17200
C494        C  0.17446533  0.32511097  0.97434185     0.11200
S495        S  0.07957428  0.33224056  0.48919728    -0.32100
S496        S  0.20971615  0.32159600  0.97462356    -0.32100
H497        H  0.21830894  0.32651215  0.92804415     0.29200
H498        H  0.07380515  0.32987582  0.53539955     0.29200
H499        H  0.12323869  0.30623566  0.93199313     0.19800
H500        H  0.17103652  0.35321796  0.01856341     0.19800
C501        C  0.40317043  0.45690924  0.98628401    -0.06000
C502        C  0.38566780  0.45261201  0.51979808    -0.17100
C503        C  0.36229440  0.43881813  0.51466410     0.11200
C504        C  0.35156540  0.43097126  0.99016950    -0.05900
C505        C  0.37478452  0.42978062  0.95568408    -0.17200
C506        C  0.40039526  0.44290814  0.95292951     0.11200
S507        S  0.32981464  0.44192891  0.55200340    -0.32100
S508        S  0.42793486  0.44257207  0.90447037    -0.32100
H509        H  0.44310426  0.46883919  0.90224113     0.29200
H510        H  0.31298617  0.42475247  0.53701108     0.29200
H511        H  0.38363628  0.46354974  0.54660246     0.19800
H512        H  0.37246324  0.42036584  0.92880336     0.19800
C513        C  0.31497540  0.37164618  0.51503565    -0.06000
C514        C  0.28627643  0.36577174  0.52811602    -0.17100
C515        C  0.27229448  0.34640136  0.56966704     0.11200
C516        C  0.28679428  0.33368545  0.60155746    -0.05900
C517        C  0.31545292  0.33981289  0.58919031    -0.17200
C518        C  0.32976027  0.35740640  0.54596375     0.11200
S519        S  0.23585910  0.33944128  0.57942608    -0.32100
S520        S  0.36654448  0.35817546  0.53216237    -0.32100
H521        H  0.37040600  0.36400381  0.48548507     0.29200
H522        H  0.22971487  0.33682493  0.62566454     0.29200
H523        H  0.27437903  0.37657578  0.50557366     0.19800
H524        H  0.32695724  0.32975499  0.61286648     0.19800
C525        C  0.29405496  0.37907854  0.92790288    -0.06000
C526        C  0.27331955  0.38626784  0.90556974    -0.17100
C527        C  0.26414812  0.36692575  0.88409006     0.11200
C528        C  0.27455441  0.33860667  0.88759577    -0.05900
C529        C  0.29453194  0.33082533  0.91084517    -0.17200
C530        C  0.30531054  0.35122217  0.92907436     0.11200
S531        S  0.23934019  0.38015989  0.85283367    -0.32100
S532        S  0.33542913  0.34151706  0.94782908    -0.32100
H533        H  0.35440580  0.35134331  0.42693257     0.29200
H534        H  0.22879500  0.35246183  0.85088460     0.29200
H535        H  0.26437273  0.40743295  0.90408135     0.19800
H536        H  0.30308420  0.30943014  0.91216829     0.19800
N537        N  0.31130937  0.88588114  0.99588365    -0.03400
C538        C  0.32014595  0.91387685  0.99602386    -0.00800
C539        C  0.31563161  0.93673552  0.45066732    -0.23700
C540        C  0.30287559  0.92109399  0.42940989    -0.23900
C541        C  0.30134747  0.89131171  0.45256608    -0.00900
H542        H  0.32332048  0.96013811  0.43734493     0.12900
H543        H  0.29685264  0.93034691  0.39869680     0.12900
N544        N  0.12320332  0.86917532  0.03987735    -0.03400
C545        C  0.11633921  0.89678456  0.01992496    -0.00800
C546        C  0.12487075  0.91828723  0.03797453    -0.23700
C547        C  0.13419941  0.90365603  0.07333206    -0.23900
C548        C  0.13276429  0.87364464  0.07446651    -0.00900
H549        H  0.11987522  0.94137610  0.03180344     0.12900
H550        H  0.13963964  0.91383003  0.09739947     0.12900
N551        N  0.35730612  0.68384170  0.01109176    -0.03400
C552        C  0.38385498  0.67824786  0.99571250    -0.00800
C553        C  0.39968576  0.68664073  0.02106874    -0.23700
C554        C  0.38253747  0.69633570  0.05409629    -0.23900
C555        C  0.35665280  0.69394782  0.04790375    -0.00900
H556        H  0.42082628  0.68236550  0.01945712     0.12900
H557        H  0.38804065  0.70250353  0.08158781     0.12900
N558        N  0.01344967  0.50481525  0.51220419    -0.36500
N559        N  0.47506988  0.96842697  0.48232965    -0.57100
N560        N  0.44579386  0.52457957  0.49495092    -0.36500
N561        N  0.48673249  0.56301707  0.50827598    -0.57100
C562        C  0.03564069  0.98759363  0.50419994     0.27100
C563        C  0.03164452  0.52379840  0.01842613     0.27100
C564        C  0.42683275  0.00019382  0.46321456     0.27100
C565        C  0.43695227  0.55173872  0.47996897     0.27100
C566        C  0.99883097  0.95407366  0.49688269     0.35700
C567        C  0.45310466  0.95540005  0.47500821     0.35700
C568        C  0.50786862  0.57547946  0.00152942     0.35700
C569        C  0.46733705  0.58254599  0.50528089     0.35700
C570        C  0.04640911  0.47858817  0.53493462    -0.21800
C571        C  0.05363691  0.50895764  0.02916195    -0.21800
C572        C  0.40717498  0.01505215  0.44476035    -0.21800
C573        C  0.41770666  0.54915805  0.45654676    -0.21800
C574        C  0.98715201  0.92552036  0.50269548    -0.22800
C575        C  0.45846694  0.92723602  0.46960272    -0.22800
C576        C  0.50237495  0.60414794  0.00501897    -0.22800
C577        C  0.47794646  0.60965592  0.99440767    -0.22800
C578        C  0.02626225  0.96097907  0.49596696    -0.18200
C579        C  0.02525959  0.55232870  0.02557421    -0.18200
C580        C  0.44385069  0.57831794  0.49018128    -0.18200
C581        C  0.42860512  0.96894792  0.47190885    -0.18200
H582        H  0.05900720  0.46053865  0.54349931     0.14700
H583        H  0.06884086  0.51645200  0.04353281     0.14700
H584        H  0.39121061  0.00546900  0.43395620     0.14700
H585        H  0.40667740  0.56676393  0.44094853     0.14700
H586        H  0.99705762  0.90490183  0.50510548     0.13000
H587        H  0.44499606  0.91103462  0.46410049     0.13000
H588        H  0.51430092  0.61933160  0.01538292     0.13000
H589        H  0.46756209  0.62976859  0.99524590     0.13000
H590        H  0.99807321  0.51112229  0.49627869     0.26300
H591        H  0.45767953  0.51900872  0.51775207     0.26300
N592        N  0.10559144  0.60962264  0.13434428    -0.03400
C593        C  0.08558185  0.58760255  0.14030196    -0.00800
C594        C  0.08054671  0.56866474  0.18343659    -0.23700
C595        C  0.09676728  0.57987870  0.20518347    -0.23900
C596        C  0.11218423  0.60480397  0.17443180    -0.00900
H597        H  0.06612509  0.54896611  0.19805266     0.12900
H598        H  0.09673409  0.57114315  0.24014708     0.12900
O599        O  0.26120972  0.81092326  0.34257546    -0.75200
O600        O  0.24278923  0.77817616  0.41175024    -0.54100
C601        C  0.25635518  0.80271145  0.38566697     0.78500
O602        O  0.15951501  0.79367563  0.25396318    -0.59800
O603        O  0.18279426  0.77097348  0.20172391    -0.52800
C604        C  0.16622138  0.78959375  0.21442629     0.70600
O605        O  0.16094697  0.79188590  0.39400528    -0.74300
O606        O  0.18533420  0.76801089  0.44163541    -0.54900
C607        C  0.16789717  0.78672607  0.43136764     0.76600
O608        O  0.26469206  0.80924456  0.20128823    -0.59500
O609        O  0.24227917  0.77936346  0.17210278    -0.52600
C610        C  0.25886314  0.80199970  0.16792872     0.73200
Zr611      Zr  0.25180519  0.79141584  0.28370696     2.54700
O612        O  0.24560166  0.84472947  0.26472450    -0.80100
O613        O  0.30161742  0.79909611  0.26214722    -0.93500
Zr614      Zr  0.17067502  0.77503555  0.32531379     2.64700
O615        O  0.15714160  0.82592910  0.31838678    -0.98400
O616        O  0.12290197  0.75490659  0.35282636    -0.80500
O617        O  0.21182484  0.78324421  0.34465233    -0.83800
O618        O  0.21075937  0.78466681  0.26400980    -2.18600
O619        O  0.27891611  0.70477004  0.23277356    -0.67200
O620        O  0.24860315  0.71921528  0.19044089    -0.51800
C621        C  0.27163878  0.71005848  0.19563045     0.71500
O622        O  0.16331335  0.67297078  0.43234694    -0.60100
O623        O  0.18737254  0.70055213  0.46291211    -0.52100
C624        C  0.16912767  0.67979628  0.46594105     0.73300
O625        O  0.16437763  0.67349206  0.28956445    -0.71500
O626        O  0.18587974  0.70469792  0.22061328    -0.50200
C627        C  0.16939554  0.68200782  0.24620874     0.74700
O628        O  0.27726551  0.69464924  0.37825939    -0.66900
O629        O  0.25155248  0.71523486  0.43128023    -0.54100
C630        C  0.27198567  0.70112780  0.41640140     0.73100
Zr631      Zr  0.25894453  0.70367945  0.31189513     2.77500
O632        O  0.25509833  0.64938075  0.32635955    -0.97600
O633        O  0.30846759  0.70258170  0.29469999    -0.78400
Zr634      Zr  0.17871552  0.68789343  0.35019862     2.70100
O635        O  0.19112945  0.63646599  0.36321053    -0.79700
O636        O  0.13045020  0.66944812  0.37375621    -0.98800
Zr637      Zr  0.21584480  0.73881255  0.39921348     2.21500
Zr638      Zr  0.21410542  0.74122234  0.23672270     2.11100
O639        O  0.21866813  0.69573052  0.28943830    -2.47500
O640        O  0.21915771  0.69450239  0.37338396    -0.79500
O641        O  0.25528405  0.74812277  0.25745063    -0.71700
O642        O  0.17439684  0.73080683  0.37908784    -2.32600
O643        O  0.25635868  0.74741222  0.33818045    -2.28800
O644        O  0.17324293  0.73222434  0.29687902    -0.73400
H645        H  0.20986439  0.80239239  0.24073475     0.78600
H646        H  0.15862234  0.72797405  0.40462109     0.79700
H647        H  0.22016356  0.67918593  0.27591476     0.81900
H648        H  0.27244888  0.75085738  0.34793624     0.79500
H649        H  0.11337920  0.76884298  0.33361470     0.42500
H650        H  0.12965090  0.64896021  0.39365285     0.41500
H651        H  0.19122661  0.63032641  0.39533460     0.41200
H652        H  0.27285996  0.64486620  0.30880919     0.39100
H653        H  0.31542843  0.72338592  0.29135209     0.42200
H654        H  0.30761783  0.78557369  0.24269224     0.37000
H655        H  0.26440446  0.85473447  0.25523075     0.43100
H656        H  0.17252041  0.83884297  0.29513231     0.39600
H657        H  0.25554609  0.64180924  0.35820669     0.44500
H658        H  0.30708409  0.78992247  0.29004790     0.43200
H659        H  0.14166631  0.82738240  0.30432309     0.43300
H660        H  0.12145199  0.68138409  0.39413446     0.43700
C661        C  0.15591263  0.66345395  0.22453675    -0.06000
C662        C  0.15943007  0.63274339  0.23437585    -0.17100
C663        C  0.14755240  0.61369848  0.21510246     0.11200
C664        C  0.13044290  0.62508680  0.18674398    -0.05900
C665        C  0.12767378  0.65604907  0.17562425    -0.17200
C666        C  0.14027287  0.67530644  0.19395074     0.11200
S667        S  0.15584309  0.57526907  0.22705280    -0.32100
S668        S  0.13426093  0.71435074  0.17882690    -0.32100
H669        H  0.13475546  0.71957530  0.22023789     0.29200
H670        H  0.15356009  0.57097008  0.18588029     0.29200
H671        H  0.17208110  0.62357616  0.25664666     0.19800
H672        H  0.11443685  0.66514404  0.15440843     0.19800
C673        C  0.12127665  0.62988018  0.09252660    -0.06000
C674        C  0.14960014  0.62757486  0.07875660    -0.17100
C675        C  0.16596475  0.64603566  0.03820653     0.11200
C676        C  0.15259515  0.66302869  0.51107009    -0.05900
C677        C  0.12402649  0.66356246  0.52054792    -0.17200
C678        C  0.10927696  0.65173296  0.06500243     0.11200
S679        S  0.20194598  0.64088001  0.02323678    -0.32100
S680        S  0.07379831  0.65878275  0.08164746    -0.32100
H681        H  0.07060081  0.64813268  0.12829426     0.29200
H682        H  0.20674372  0.64653937  0.49068370     0.29200
H683        H  0.15897928  0.61099446  0.09980993     0.19800
H684        H  0.11497955  0.67677680  0.49523554     0.19800
C685        C  0.04093049  0.56523838  0.05179682    -0.06000
C686        C  0.02746666  0.56491687  0.09605410    -0.17100
C687        C  0.04101327  0.57518202  0.12337332     0.11200
C688        C  0.06963317  0.58370690  0.10796402    -0.05900
C689        C  0.08294180  0.58517828  0.06287415    -0.17200
C690        C  0.06856888  0.57708758  0.03425266     0.11200
S691        S  0.02005857  0.57772908  0.17705227    -0.32100
S692        S  0.08546671  0.58158224  0.97563019    -0.32100
H693        H  0.11018549  0.59589664  0.97577054     0.29200
H694        H  0.03579163  0.60256324  0.17868480     0.29200
H695        H  0.00594813  0.55697618  0.10923650     0.19800
H696        H  0.10467785  0.59172799  0.05037021     0.19800
C697        C  0.39298684  0.65361342  0.97533476    -0.06000
C698        C  0.38316125  0.62458528  0.00239181    -0.17100
C699        C  0.39938646  0.60056434  0.00131485     0.11200
C700        C  0.42563974  0.60501563  0.97043330    -0.05900
C701        C  0.43388044  0.62957551  0.45216415    -0.17200
C702        C  0.41751718  0.65367242  0.44933316     0.11200
S703        S  0.38636240  0.56567371  0.04355056    -0.32100
S704        S  0.43172904  0.68873746  0.40869041    -0.32100
H705        H  0.40648293  0.70116508  0.40985379     0.29200
H706        H  0.41170670  0.55821811  0.05191073     0.29200
H707        H  0.36433035  0.62130391  0.02892321     0.19800
H708        H  0.45420157  0.63234887  0.42942216     0.19800
C709        C  0.29195590  0.70742269  0.15521314    -0.06000
C710        C  0.28875845  0.68311282  0.13771813    -0.17100
C711        C  0.30899949  0.67839526  0.10162144     0.11200
C712        C  0.33212078  0.69948427  0.08070940    -0.05900
C713        C  0.33426893  0.72466572  0.09683777    -0.17200
C714        C  0.31490701  0.72861126  0.13413220     0.11200
S715        S  0.30560175  0.64348504  0.08774472    -0.32100
S716        S  0.32197495  0.76048277  0.15371916    -0.32100
H717        H  0.29637425  0.76035205  0.18322218     0.29200
H718        H  0.33289427  0.63744873  0.08603739     0.29200
H719        H  0.27124939  0.66672572  0.15407012     0.19800
H720        H  0.35201069  0.74084347  0.08137714     0.19800
C721        C  0.29236397  0.69438816  0.44305552    -0.06000
C722        C  0.30685824  0.71885252  0.44782851    -0.17100
C723        C  0.32622644  0.71637969  0.97382926     0.11200
C724        C  0.33690206  0.68822179  0.98545455    -0.05900
C725        C  0.32115953  0.66117694  0.48111120    -0.17200
C726        C  0.29974672  0.66518207  0.45964943     0.11200
S727        S  0.34077605  0.75017995  0.98046489    -0.32100
S728        S  0.28214183  0.63223961  0.45561510    -0.32100
H729        H  0.25702321  0.64449281  0.45488429     0.29200
H730        H  0.36786698  0.74215836  0.97185721     0.29200
H731        H  0.30197657  0.74137937  0.43385627     0.19800
H732        H  0.32623417  0.63873777  0.49478790     0.19800
C733        C  0.04533789  0.93706253  0.49452919    -0.06000
C734        C  0.04369955  0.91489556  0.03790504    -0.17100
C735        C  0.06549246  0.89766680  0.04411366     0.11200
C736        C  0.08998268  0.90243909  0.00882896    -0.05900
C737        C  0.09016410  0.92201836  0.46378016    -0.17200
C738        C  0.06886327  0.94022491  0.45826378     0.11200
S739        S  0.06326281  0.87350575  0.09961261    -0.32100
S740        S  0.07426158  0.96954052  0.40647849    -0.32100
H741        H  0.02691785  0.46118992  0.41938232     0.28900
H742        H  0.03483118  0.87346925  0.11697485     0.29200
H743        H  0.02601929  0.91340008  0.06602821     0.19800
H744        H  0.10925615  0.92654259  0.43754310     0.19800
C745        C  0.15673641  0.81050148  0.17987557    -0.06000
C746        C  0.13751768  0.80059733  0.16080884    -0.17100
C747        C  0.12861564  0.82049278  0.12696278     0.11200
C748        C  0.14075067  0.85044453  0.10992472    -0.05900
C749        C  0.16058277  0.85968423  0.12893857    -0.17200
C750        C  0.16768372  0.84055911  0.16496950     0.11200
S751        S  0.10020529  0.80747132  0.11001336    -0.32100
S752        S  0.19141274  0.85463693  0.19080873    -0.32100
H753        H  0.19590589  0.88420865  0.16308550     0.29200
H754        H  0.10412713  0.77679355  0.12287162     0.29200
H755        H  0.12856659  0.77767096  0.17399736     0.19800
H756        H  0.17060128  0.88215049  0.11577355     0.19800
C757        C  0.15489761  0.80436838  0.46352617    -0.06000
C758        C  0.12908084  0.81468086  0.46193278    -0.17100
C759        C  0.11642817  0.83314494  0.48849529     0.11200
C760        C  0.13058862  0.84414772  0.51535584    -0.05900
C761        C  0.15623862  0.83321063  0.51739441    -0.17200
C762        C  0.16774458  0.81274935  0.49389285     0.11200
S763        S  0.08361652  0.84039837  0.99197839    -0.32100
S764        S  0.19921108  0.79906685  0.50385220    -0.32100
H765        H  0.21267385  0.80843993  0.45815193     0.29200
H766        H  0.07603495  0.83750787  0.03838871     0.29200
H767        H  0.11813425  0.80754496  0.44057808     0.19800
H768        H  0.16815712  0.84114612  0.53664081     0.19800
C769        C  0.40291835  0.95022267  0.47816451    -0.06000
C770        C  0.37344427  0.94539890  0.04069314    -0.17100
C771        C  0.34819855  0.93213331  0.04123391     0.11200
C772        C  0.35044353  0.92257096  0.48931856    -0.05900
C773        C  0.37253101  0.92155415  0.45278983    -0.17200
C774        C  0.39821431  0.93640450  0.44566538     0.11200
S775        S  0.31907341  0.93191970  0.08758346    -0.32100
S776        S  0.42265998  0.93967184  0.39219730    -0.32100
H777        H  0.43607632  0.96726697  0.38899077     0.29200
H778        H  0.30164283  0.91091753  0.08017146     0.29200
H779        H  0.37478234  0.95495869  0.06788547     0.19800
H780        H  0.36886716  0.91180598  0.42699406     0.19800
C781        C  0.29981772  0.86178165  0.03682813    -0.06000
C782        C  0.27211677  0.85090983  0.04680608    -0.17100
C783        C  0.25883106  0.83015616  0.08749573     0.11200
C784        C  0.27253766  0.82130091  0.12178397    -0.05900
C785        C  0.30025402  0.83173772  0.11195671    -0.17200
C786        C  0.31433742  0.85027156  0.06945828     0.11200
S787        S  0.22409223  0.81704517  0.09331555    -0.32100
S788        S  0.35093698  0.85571271  0.05876221    -0.32100
H789        H  0.35633178  0.86032508  0.01202436     0.29200
H790        H  0.21510060  0.81664053  0.13855475     0.29200
H791        H  0.26012672  0.85931498  0.02325525     0.19800
H792        H  0.31141533  0.82445760  0.13719825     0.19800
C793        C  0.28942209  0.86701615  0.43835495    -0.06000
C794        C  0.26679260  0.87294168  0.42037187    -0.17100
C795        C  0.25546436  0.85219953  0.40350794     0.11200
C796        C  0.26617553  0.82407921  0.40632196    -0.05900
C797        C  0.28819823  0.81754932  0.42539928    -0.17200
C798        C  0.30053979  0.83906927  0.43999630     0.11200
S799        S  0.22778947  0.86357649  0.37800482    -0.32100
S800        S  0.33189999  0.83054401  0.45554775    -0.32100
H801        H  0.34651107  0.85988988  0.93934307     0.29200
H802        H  0.21614161  0.83498776  0.38188176     0.29200
H803        H  0.25793843  0.89416559  0.41890363     0.19800
H804        H  0.29694579  0.79631735  0.42618679     0.19800
N805        N  0.31203934  0.88788312  0.48874316    -0.03400
C806        C  0.32267592  0.91605059  0.48511063    -0.00800
C807        C  0.31406945  0.93529542  0.96136105    -0.23700
C808        C  0.30341911  0.92043780  0.93676132    -0.23900
C809        C  0.30214219  0.89033170  0.95807441    -0.00900
H810        H  0.32096216  0.95893804  0.95063790     0.12900
H811        H  0.29831095  0.93050489  0.90546841     0.12900
N812        N  0.12066239  0.86700884  0.53855766    -0.03400
C813        C  0.11461621  0.89468677  0.51702123    -0.00800
C814        C  0.12335144  0.91654487  0.53421966    -0.23700
C815        C  0.13176010  0.90227945  0.57066058    -0.23900
C816        C  0.12994318  0.87206449  0.57315269    -0.00900
H817        H  0.11896038  0.93983625  0.52670658     0.12900
H818        H  0.13707626  0.91293321  0.59433350     0.12900
N819        N  0.35533877  0.68122916  0.51264040    -0.03400
C820        C  0.38210078  0.67670235  0.49710574    -0.00800
C821        C  0.39774347  0.68730275  0.52096956    -0.23700
C822        C  0.38022915  0.69738560  0.55317071    -0.23900
C823        C  0.35444106  0.69306841  0.54771108    -0.00900
H824        H  0.41909315  0.68417965  0.51928115     0.12900
H825        H  0.38547376  0.70531492  0.57947470     0.12900
N826        N  0.01710088  0.50614310  0.00243147    -0.36500
N827        N  0.47005589  0.96715089  0.00059481    -0.57100
N828        N  0.44435271  0.52642202  0.97863968    -0.36500
N829        N  0.48798362  0.56394103  0.98741120    -0.57100
C830        C  0.03561202  0.98828357  0.00113565     0.27100
C831        C  0.02748601  0.52184804  0.52983258     0.27100
C832        C  0.42054803  0.99789704  0.99013360     0.27100
C833        C  0.43621441  0.55390643  0.96308912     0.27100
C834        C  0.99879071  0.95253715  0.99908613     0.35700
C835        C  0.44562321  0.95248292  0.00592250     0.35700
C836        C  0.50570301  0.57494584  0.52369567     0.35700
C837        C  0.46941355  0.58448798  0.98375581     0.35700
C838        C  0.05243819  0.48190032  0.01922488    -0.21800
C839        C  0.04780914  0.50566570  0.54460016    -0.21800
C840        C  0.40142699  0.01251705  0.96989773    -0.21800
C841        C  0.41523943  0.55136541  0.94298526    -0.21800
C842        C  0.98721222  0.92350350  0.00802807    -0.22800
C843        C  0.44862309  0.92238502  0.00922508    -0.22800
C844        C  0.49856157  0.60270356  0.52961943    -0.22800
C845        C  0.47423626  0.60745753  0.51810478    -0.22800
C846        C  0.02624592  0.96032199  0.99699429    -0.18200
C847        C  0.02244270  0.55131676  0.53391329    -0.18200
C848        C  0.44475693  0.58068816  0.97136331    -0.18200
C849        C  0.42146230  0.96647874  0.00210627    -0.18200
H850        H  0.06621314  0.46467775  0.02530158     0.14700
H851        H  0.06209118  0.51229513  0.56133289     0.14700
H852        H  0.38504636  0.00256965  0.96044693     0.14700
H853        H  0.40410883  0.56918338  0.92818244     0.14700
H854        H  0.99725464  0.90295841  0.01256761     0.13000
H855        H  0.43296398  0.90500954  0.01293649     0.13000
H856        H  0.50956477  0.61787579  0.54143048     0.13000
H857        H  0.46290305  0.62692984  0.51933722     0.13000
H858        H  0.00029873  0.51151069  0.98994050     0.26300
H859        H  0.45707714  0.52097206  0.00006811     0.26300
N860        N  0.10193068  0.61291288  0.63899169    -0.03400
C861        C  0.08074435  0.59166831  0.64751444    -0.00800
C862        C  0.07319529  0.57667705  0.69292551    -0.23700
C863        C  0.08930898  0.58945232  0.71319926    -0.23900
C864        C  0.10706306  0.61125954  0.67956640    -0.00900
H865        H  0.05735465  0.55847065  0.70979895     0.12900
H866        H  0.08809833  0.58351092  0.74883925     0.12900
O867        O  0.26402201  0.81358466  0.84046305    -0.75200
O868        O  0.24600694  0.78032224  0.90940531    -0.54100
C869        C  0.25946683  0.80493842  0.88350510     0.78500
O870        O  0.15802383  0.79611723  0.75535422    -0.59800
O871        O  0.18270015  0.77519442  0.70181318    -0.52800
C872        C  0.16468391  0.79218700  0.71570258     0.70600
O873        O  0.16354636  0.79607453  0.89322556    -0.74300
O874        O  0.18813048  0.77154210  0.94013140    -0.54900
C875        C  0.17068983  0.79042326  0.93042056     0.76600
O876        O  0.26705735  0.81316539  0.69838568    -0.59500
O877        O  0.24272078  0.78488166  0.66967118    -0.52600
C878        C  0.26002792  0.80696479  0.66517936     0.73200
Zr879      Zr  0.25490995  0.79451991  0.78098606     2.54700
O880        O  0.25277912  0.84859349  0.75997457    -0.80100
O881        O  0.30479252  0.79900254  0.76132350    -0.93500
Zr882      Zr  0.17388930  0.78132994  0.82287182     2.64700
O883        O  0.17299375  0.83564415  0.80186838    -0.98400
O884        O  0.12437262  0.77232435  0.85229466    -0.80500
O885        O  0.21525019  0.78729766  0.84255456    -0.83800
O886        O  0.21346093  0.78963081  0.76122659    -2.18600
O887        O  0.27813774  0.70454074  0.73175615    -0.67200
O888        O  0.25033005  0.72524038  0.68747237    -0.51800
C889        C  0.27176317  0.71241440  0.69389592     0.71500
O890        O  0.16361183  0.67728142  0.93045140    -0.60100
O891        O  0.18798681  0.70475794  0.96068161    -0.52100
C892        C  0.16961758  0.68403490  0.96399695     0.73300
O893        O  0.16582937  0.67855498  0.78652599    -0.71500
O894        O  0.18761056  0.70957851  0.71760783    -0.50200
C895        C  0.17097331  0.68699644  0.74313232     0.74700
O896        O  0.27877554  0.69626151  0.87542483    -0.66900
O897        O  0.25331281  0.71678822  0.92868163    -0.54100
C898        C  0.27368595  0.70253260  0.91374813     0.73100
Zr899      Zr  0.25959370  0.70636394  0.80976642     2.77500
O900        O  0.25517658  0.65198677  0.82563961    -0.97600
O901        O  0.30928202  0.70695624  0.79050348    -0.78400
Zr902      Zr  0.17886082  0.69326290  0.84811114     2.70100
O903        O  0.18608150  0.64016891  0.86475969    -0.79700
O904        O  0.12928304  0.68196123  0.87284853    -0.98800
Zr905      Zr  0.21788400  0.74208414  0.89706437     2.21500
Zr906      Zr  0.21535679  0.74611971  0.73448966     2.11100
O907        O  0.21888777  0.70023509  0.78743068    -2.47500
O908        O  0.21973340  0.69794138  0.87114783    -0.79500
O909        O  0.25699169  0.75120220  0.75485999    -0.71700
O910        O  0.17633941  0.73626803  0.87635601    -2.32600
O911        O  0.25821812  0.75002624  0.83585461    -2.28800
O912        O  0.17474638  0.73829809  0.79493427    -0.73400
H913        H  0.21231457  0.80729856  0.73801115     0.78600
H914        H  0.16061078  0.73374037  0.90188961     0.79700
H915        H  0.21997175  0.68373482  0.77385727     0.81900
H916        H  0.27437341  0.75281415  0.84579621     0.79500
H917        H  0.12021390  0.75144166  0.85194462     0.42500
H918        H  0.12297246  0.68648075  0.84501152     0.41500
H919        H  0.19511216  0.63681105  0.83521814     0.41200
H920        H  0.27400447  0.64619849  0.82464730     0.39100
H921        H  0.31584120  0.72847482  0.77816279     0.42200
H922        H  0.31020199  0.78643983  0.74021800     0.37000
H923        H  0.27214815  0.85690397  0.74742961     0.43100
H924        H  0.15330034  0.83897966  0.80919356     0.39600
H925        H  0.24516315  0.64492860  0.85790918     0.44500
H926        H  0.30967539  0.78799211  0.78898627     0.43200
H927        H  0.18018423  0.84269748  0.82405712     0.43300
H928        H  0.12652404  0.65984573  0.88444145     0.43700
C929        C  0.15696971  0.66870765  0.72166587    -0.06000
C930        C  0.15739852  0.63749843  0.73537095    -0.17100
C931        C  0.14355163  0.61860118  0.71846440     0.11200
C932        C  0.12743053  0.63077140  0.68886077    -0.05900
C933        C  0.12812915  0.66207420  0.67313558    -0.17200
C934        C  0.14289829  0.68113243  0.68883905     0.11200
S935        S  0.14780827  0.57910349  0.73523308    -0.32100
S936        S  0.14156070  0.72087053  0.66763136    -0.32100
H937        H  0.14003105  0.72739722  0.70890249     0.29200
H938        H  0.14486449  0.57344821  0.69517724     0.29200
H939        H  0.16893475  0.62771996  0.75917778     0.19800
H940        H  0.11595945  0.67175229  0.65033192     0.19800
C941        C  0.11851368  0.63077632  0.59581377    -0.06000
C942        C  0.14718633  0.63037310  0.58614435    -0.17100
C943        C  0.16431384  0.64678290  0.54471090     0.11200
C944        C  0.15379652  0.66669148  0.00952159    -0.05900
C945        C  0.12548857  0.66927196  0.02327716    -0.17200
C946        C  0.10702813  0.64876185  0.56299212     0.11200
S947        S  0.20079590  0.64563378  0.53658709    -0.32100
S948        S  0.07139822  0.65569373  0.57394998    -0.32100
H949        H  0.06778646  0.65249652  0.62020001     0.29200
H950        H  0.21046980  0.67142499  0.01387825     0.29200
H951        H  0.15631095  0.61687965  0.61105244     0.19800
H952        H  0.11603810  0.68533856  0.00158267     0.19800
C953        C  0.03833128  0.56463677  0.55944826    -0.06000
C954        C  0.02390936  0.56866737  0.60089782    -0.17100
C955        C  0.03709679  0.58004565  0.62755865     0.11200
C956        C  0.06609186  0.58496342  0.61522010    -0.05900
C957        C  0.08067899  0.58132514  0.57328883    -0.17200
C958        C  0.06692871  0.57246665  0.54448791     0.11200
S959        S  0.01522309  0.58918477  0.67573644    -0.32100
S960        S  0.08587011  0.57115411  0.48896894    -0.32100
H961        H  0.11031402  0.58616023  0.48889531     0.29200
H962        H  0.03250322  0.61375163  0.67418868     0.29200
H963        H  0.00187759  0.56353894  0.61214944     0.19800
H964        H  0.10278298  0.58507463  0.56326888     0.19800
C965        C  0.39164892  0.65078650  0.48051135    -0.06000
C966        C  0.38133014  0.62253246  0.50999382    -0.17100
C967        C  0.39785856  0.59866226  0.51379764     0.11200
C968        C  0.42490715  0.60250821  0.48566724    -0.05900
C969        C  0.43401398  0.63327535  0.93945248    -0.17200
C970        C  0.41812787  0.65759709  0.94197831     0.11200
S971        S  0.38398882  0.56490106  0.55802297    -0.32100
S972        S  0.43216136  0.69397630  0.90511657    -0.32100
H973        H  0.40715192  0.70717873  0.91047820     0.29200
H974        H  0.40882252  0.55769581  0.56862413     0.29200
H975        H  0.36177619  0.62015522  0.53473173     0.19800
H976        H  0.45376589  0.63681040  0.91494012     0.19800
C977        C  0.29137095  0.70809921  0.65410783    -0.06000
C978        C  0.29000754  0.68079231  0.64322002    -0.17100
C979        C  0.30929911  0.67571971  0.60620236     0.11200
C980        C  0.32965481  0.69888183  0.57909363    -0.05900
C981        C  0.32984038  0.72665016  0.58880639    -0.17200
C982        C  0.31145312  0.73121534  0.62651083     0.11200
S983        S  0.30932147  0.63893774  0.59675476    -0.32100
S984        S  0.31602864  0.76631462  0.63917641    -0.32100
H985        H  0.30976896  0.75439734  0.68609737     0.29200
H986        H  0.28602123  0.62579770  0.63192601     0.29200
H987        H  0.27446409  0.66320479  0.66469604     0.19800
H988        H  0.34580274  0.74422912  0.56870095     0.19800
C989        C  0.29417394  0.69564258  0.94066283    -0.06000
C990        C  0.30460256  0.71939715  0.95333889    -0.17100
C991        C  0.32858227  0.71499503  0.46797835     0.11200
C992        C  0.33543262  0.68577475  0.48634391    -0.05900
C993        C  0.32674529  0.66439328  0.97231052    -0.17200
C994        C  0.30570933  0.66781540  0.94993412     0.11200
S995        S  0.34755377  0.74850184  0.46725668    -0.32100
S996        S  0.29398870  0.63561477  0.93545196    -0.32100
H997        H  0.26692800  0.64323587  0.93882071     0.29200
H998        H  0.37307535  0.73648978  0.46192075     0.29200
H999        H  0.29685284  0.74118661  0.94478437     0.19800
H1000       H  0.33469960  0.64276717  0.98044411     0.19800
C1001       C  0.04575637  0.93674115  0.99740053    -0.06000
C1002       C  0.04246362  0.91388373  0.53383824    -0.17100
C1003       C  0.06380516  0.89596753  0.53974361     0.11200
C1004       C  0.08858841  0.90101035  0.50504960    -0.05900
C1005       C  0.09085906  0.92216887  0.96689851    -0.17200
C1006       C  0.06897160  0.93928447  0.96079375     0.11200
S1007       S  0.06067692  0.87118135  0.59502834    -0.32100
S1008       S  0.07308393  0.96647454  0.90722722    -0.32100
H1009       H  0.03481011  0.46230894  0.90815385     0.28900
H1010       H  0.03185821  0.86785888  0.60827629     0.29200
H1011       H  0.02461639  0.91199131  0.56185601     0.19800
H1012       H  0.10968983  0.92637753  0.94013348     0.19800
C1013       C  0.15375307  0.81200852  0.68184504    -0.06000
C1014       C  0.13381070  0.80125694  0.66476854    -0.17100
C1015       C  0.12502116  0.82006322  0.62955479     0.11200
C1016       C  0.13784766  0.84959929  0.60959732    -0.05900
C1017       C  0.15813431  0.85962487  0.62702848    -0.17200
C1018       C  0.16506667  0.84182830  0.66417002     0.11200
S1019       S  0.09647861  0.80645949  0.61337250    -0.32100
S1020       S  0.18845834  0.85766443  0.68878149    -0.32100
H1021       H  0.19937048  0.88245616  0.65160099     0.29200
H1022       H  0.09588299  0.77615872  0.63678826     0.29200
H1023       H  0.12456880  0.77856146  0.68006646     0.19800
H1024       H  0.16846839  0.88187858  0.61207848     0.19800
C1025       C  0.15790163  0.80778634  0.96298824    -0.06000
C1026       C  0.13153165  0.81696663  0.96315501    -0.17100
C1027       C  0.11895055  0.83535643  0.98985898     0.11200
C1028       C  0.13362432  0.84725133  0.01519542    -0.05900
C1029       C  0.15993085  0.83760902  0.01528089    -0.17200
C1030       C  0.17154837  0.81737793  0.99146065     0.11200
S1031       S  0.08150607  0.83925014  0.48872266    -0.32100
S1032       S  0.20410380  0.80555483  0.99862743    -0.32100
H1033       H  0.21543507  0.81137837  0.95251144     0.29200
H1034       H  0.07309222  0.83442905  0.53557906     0.29200
H1035       H  0.12016082  0.80903793  0.94300459     0.19800
H1036       H  0.17212800  0.84630033  0.03348919     0.19800
C1037       C  0.39662035  0.94806654  0.00421703    -0.06000
C1038       C  0.38125614  0.94956848  0.51618410    -0.17100
C1039       C  0.35497680  0.93670631  0.52142368     0.11200
C1040       C  0.34637019  0.92058260  0.00510299    -0.05900
C1041       C  0.36999813  0.92162230  0.97015610    -0.17200
C1042       C  0.39474317  0.93605521  0.96848169     0.11200
S1043       S  0.32779620  0.94104625  0.56768797    -0.32100
S1044       S  0.42224813  0.94041488  0.91805425    -0.32100
H1045       H  0.43439260  0.96798090  0.91778996     0.29200
H1046       H  0.30969670  0.91739816  0.56867012     0.29200
H1047       H  0.38451051  0.96079443  0.54069397     0.19800
H1048       H  0.36847649  0.91335669  0.94182424     0.19800
C1049       C  0.30020603  0.86556687  0.53181213    -0.06000
C1050       C  0.27219383  0.85534502  0.54338487    -0.17100
C1051       C  0.25900688  0.83533258  0.58494219     0.11200
C1052       C  0.27312657  0.82673326  0.61879435    -0.05900
C1053       C  0.30092936  0.83729276  0.60785538    -0.17200
C1054       C  0.31489387  0.85477350  0.56444104     0.11200
S1055       S  0.22396003  0.82256166  0.59195553    -0.32100
S1056       S  0.35158126  0.85956121  0.55264029    -0.32100
H1057       H  0.35644361  0.86156861  0.50658752     0.29200
H1058       H  0.21544991  0.82201651  0.63732356     0.29200
H1059       H  0.25994913  0.86338787  0.52011441     0.19800
H1060       H  0.31239433  0.83046646  0.63276784     0.19800
C1061       C  0.29118297  0.86692721  0.94120577    -0.06000
C1062       C  0.26882354  0.87339070  0.92274944    -0.17100
C1063       C  0.25820751  0.85364937  0.90355240     0.11200
C1064       C  0.26934245  0.82585860  0.90463239    -0.05900
C1065       C  0.29115626  0.81876573  0.92405861    -0.17200
C1066       C  0.30281670  0.83943058  0.94096779     0.11200
S1067       S  0.23057285  0.86582266  0.87826453    -0.32100
S1068       S  0.33383962  0.83051046  0.95742157    -0.32100
H1069       H  0.34505142  0.85950139  0.43424575     0.29200
H1070       H  0.22032030  0.83798468  0.87642049     0.29200
H1071       H  0.25957360  0.89427746  0.92285266     0.19800
H1072       H  0.30013706  0.79775892  0.92367178     0.19800
N1073       N  0.81660567  0.38655687  0.97946939    -0.03400
C1074       C  0.82721501  0.41461868  0.97605346    -0.00800
C1075       C  0.82292318  0.43534857  0.44154533    -0.23700
C1076       C  0.81028250  0.42022807  0.41945524    -0.23900
C1077       C  0.80539935  0.39080695  0.44509586    -0.00900
H1078       H  0.83199462  0.45827491  0.42846325     0.12900
H1079       H  0.80606497  0.42947705  0.38718970     0.12900
N1080       N  0.61895925  0.36758267  0.03028188    -0.03400
C1081       C  0.61056593  0.39456239  0.01087425    -0.00800
C1082       C  0.61867359  0.41671332  0.02814491    -0.23700
C1083       C  0.62935853  0.40309599  0.06243726    -0.23900
C1084       C  0.62912060  0.37305403  0.06382502    -0.00900
H1085       H  0.61275955  0.43945795  0.02215456     0.12900
H1086       H  0.63509365  0.41391839  0.08559895     0.12900
N1087       N  0.85699436  0.17984763  0.00030848    -0.03400
C1088       C  0.88254783  0.17113439  0.98655229    -0.00800
C1089       C  0.89905813  0.17772823  0.01218735    -0.23700
C1090       C  0.88332760  0.19002491  0.04339762    -0.23900
C1091       C  0.85763398  0.19078289  0.03591334    -0.00900
H1092       H  0.91949366  0.17101261  0.01164016     0.12900
H1093       H  0.88942917  0.19585435  0.07065415     0.12900
N1094       N  0.51589821  0.00297769  0.50387203    -0.36500
N1095       N  0.96743643  0.46634167  0.51318439    -0.57100
N1096       N  0.94481518  0.02257942  0.49249402    -0.36500
N1097       N  0.98703327  0.06166621  0.50141326    -0.57100
C1098       C  0.53572204  0.48916203  0.51133615     0.27100
C1099       C  0.53203715  0.02315527  0.01495788     0.27100
C1100       C  0.91735891  0.49630798  0.50281228     0.27100
C1101       C  0.93604224  0.04968008  0.47688125     0.27100
C1102       C  0.50008680  0.45630761  0.50012744     0.35700
C1103       C  0.94308112  0.45125307  0.51953470     0.35700
C1104       C  0.00856361  0.07767749  0.99346919     0.35700
C1105       C  0.96728242  0.08086299  0.49996530     0.35700
C1106       C  0.53828268  0.97308804  0.54782624    -0.21800
C1107       C  0.55377459  0.00779833  0.02573755    -0.21800
C1108       C  0.89795051  0.51062141  0.48290212    -0.21800
C1109       C  0.91620126  0.04663309  0.45476058    -0.21800
C1110       C  0.48904128  0.42799529  0.50328778    -0.22800
C1111       C  0.94632326  0.42106321  0.52377985    -0.22800
C1112       C  0.00165737  0.10631584  0.99491236    -0.22800
C1113       C  0.97644324  0.10917628  0.98611292    -0.22800
C1114       C  0.52715420  0.46317544  0.50071340    -0.18200
C1115       C  0.52660342  0.05214803  0.02113812    -0.18200
C1116       C  0.94350387  0.07660832  0.48566376    -0.18200
C1117       C  0.91910476  0.46492891  0.51356843    -0.18200
H1118       H  0.54683315  0.95364550  0.56473374     0.14700
H1119       H  0.56947689  0.01511069  0.03928011     0.14700
H1120       H  0.88186802  0.50051060  0.47299311     0.14700
H1121       H  0.90504194  0.06408111  0.43913190     0.14700
H1122       H  0.49926588  0.40758194  0.50524353     0.13000
H1123       H  0.93075750  0.40339508  0.52825479     0.13000
H1124       H  0.01316014  0.12313930  0.00292779     0.13000
H1125       H  0.96492283  0.12860396  0.98608601     0.13000
H1126       H  0.50654221  0.01118337  0.47808565     0.26300
H1127       H  0.95713645  0.01740491  0.51468089     0.26300
N1128       N  0.60727466  0.11149515  0.12685241    -0.03400
C1129       C  0.58683981  0.08952058  0.13497217    -0.00800
C1130       C  0.58115776  0.07268929  0.17948670    -0.23700
C1131       C  0.59768258  0.08510801  0.19961089    -0.23900
C1132       C  0.61380500  0.10860193  0.16662074    -0.00900
H1133       H  0.56630843  0.05348749  0.19590900     0.12900
H1134       H  0.59772095  0.07788875  0.23473154     0.12900
O1135       O  0.76086401  0.31617034  0.33237619    -0.75200
O1136       O  0.74565738  0.28076946  0.39992474    -0.54100
C1137       C  0.75716883  0.30655661  0.37524062     0.78500
O1138       O  0.66317733  0.29717579  0.24003694    -0.59800
O1139       O  0.68713764  0.27535907  0.18728993    -0.52800
C1140       C  0.66997806  0.29341731  0.20025698     0.70600
O1141       O  0.66587863  0.29500834  0.37937559    -0.74300
O1142       O  0.68987456  0.27080816  0.42747587    -0.54900
C1143       C  0.67281647  0.28983448  0.41671349     0.76600
O1144       O  0.76894434  0.31401635  0.18822508    -0.59500
O1145       O  0.74653518  0.28445197  0.15858394    -0.52600
C1146       C  0.76319196  0.30686979  0.15469019     0.73200
Zr1147     Zr  0.75490342  0.29671744  0.27101347     2.54700
O1148       O  0.74880362  0.34996497  0.24876315    -0.80100
O1149       O  0.80430746  0.30636349  0.25638150    -0.93500
Zr1150     Zr  0.67386044  0.27709025  0.31186832     2.64700
O1151       O  0.65269682  0.32408430  0.30995638    -0.98400
O1152       O  0.62725501  0.25320814  0.34007918    -0.80500
O1153       O  0.71468709  0.28634866  0.33168169    -0.83800
O1154       O  0.71407960  0.28919277  0.25070156    -2.18600
O1155       O  0.78442092  0.21068769  0.21688382    -0.67200
O1156       O  0.75342408  0.22466113  0.17573216    -0.51800
C1157       C  0.77656366  0.21557433  0.18033582     0.71500
O1158       O  0.66930612  0.17455496  0.41729322    -0.60100
O1159       O  0.69227276  0.20284352  0.44842389    -0.52100
C1160       C  0.67470649  0.18151143  0.45113276     0.73300
O1161       O  0.67206616  0.17647858  0.27282319    -0.71500
O1162       O  0.69178850  0.20947239  0.20459576    -0.50200
C1163       C  0.67636734  0.18585910  0.22964938     0.74700
O1164       O  0.78247285  0.19811217  0.36315703    -0.66900
O1165       O  0.75597799  0.21775793  0.41661016    -0.54100
C1166       C  0.77657365  0.20377265  0.40189003     0.73100
Zr1167     Zr  0.76490998  0.20952139  0.29593607     2.77500
O1168       O  0.76361591  0.15550581  0.30680154    -0.97600
O1169       O  0.81470737  0.21252871  0.27800635    -0.78400
Zr1170     Zr  0.68474742  0.19059515  0.33498562     2.70100
O1171       O  0.69780776  0.13939236  0.34919842    -0.79700
O1172       O  0.63661104  0.17160256  0.36015669    -0.98800
Zr1173     Zr  0.72013325  0.24173378  0.38496835     2.21500
Zr1174     Zr  0.71882754  0.24609721  0.22245186     2.11100
O1175       O  0.72471704  0.20058025  0.27386057    -2.47500
O1176       O  0.72512961  0.19822742  0.35760807    -0.79500
O1177       O  0.76000287  0.25418147  0.24280938    -0.71700
O1178       O  0.67884020  0.23291603  0.36494891    -2.32600
O1179       O  0.76076696  0.25247571  0.32405801    -2.28800
O1180       O  0.67790165  0.23475545  0.28249660    -0.73400
H1181       H  0.71282600  0.30700442  0.22783701     0.78600
H1182       H  0.66310642  0.22942730  0.39066922     0.79700
H1183       H  0.72680296  0.18438917  0.25960823     0.81900
H1184       H  0.77661433  0.25609640  0.33433870     0.79500
H1185       H  0.62432959  0.24485343  0.31574923     0.42500
H1186       H  0.62858259  0.18156083  0.33538952     0.41500
H1187       H  0.70226425  0.13519634  0.31935501     0.41200
H1188       H  0.77527151  0.15295129  0.27819925     0.39100
H1189       H  0.82003508  0.23129314  0.28442354     0.42200
H1190       H  0.81109051  0.31434697  0.22327735     0.37000
H1191       H  0.76664816  0.36009729  0.24675855     0.43100
H1192       H  0.66404782  0.33879481  0.28272664     0.39600
H1193       H  0.77428543  0.14841724  0.32906400     0.44500
H1194       H  0.81111892  0.28625189  0.26293425     0.43200
H1195       H  0.63501097  0.32093544  0.30304509     0.43300
H1196       H  0.63666088  0.15033826  0.35955146     0.43700
C1197       C  0.66277818  0.16745738  0.20793300    -0.06000
C1198       C  0.66524838  0.13652771  0.21912519    -0.17100
C1199       C  0.65151233  0.11729845  0.20259414     0.11200
C1200       C  0.63368180  0.12879836  0.17571021    -0.05900
C1201       C  0.63234239  0.15996157  0.16238136    -0.17200
C1202       C  0.64680118  0.17938616  0.17790186     0.11200
S1203       S  0.65804277  0.07833574  0.21648645    -0.32100
S1204       S  0.64260771  0.21877573  0.16025959    -0.32100
H1205       H  0.64224091  0.22438033  0.20176930     0.29200
H1206       H  0.65393809  0.07304934  0.17687851     0.29200
H1207       H  0.67814852  0.12723299  0.24089487     0.19800
H1208       H  0.61879896  0.16914070  0.14176628     0.19800
C1209       C  0.62249533  0.13081653  0.08393187    -0.06000
C1210       C  0.65101849  0.12977939  0.07054823    -0.17100
C1211       C  0.66677136  0.14692642  0.02851384     0.11200
C1212       C  0.65852620  0.16423047  0.49621536    -0.05900
C1213       C  0.63066730  0.16880331  0.50930191    -0.17200
C1214       C  0.60971195  0.15044062  0.05483400     0.11200
S1215       S  0.70325870  0.14412788  0.01514827    -0.32100
S1216       S  0.57417247  0.15720314  0.07151348    -0.32100
H1217       H  0.57230232  0.15054052  0.11787508     0.29200
H1218       H  0.71108458  0.14569648  0.46621533     0.29200
H1219       H  0.66102581  0.11503779  0.09290200     0.19800
H1220       H  0.62210552  0.18548896  0.48697668     0.19800
C1221       C  0.54280245  0.06489497  0.04692881    -0.06000
C1222       C  0.52907808  0.06624065  0.09032301    -0.17100
C1223       C  0.54258678  0.07677422  0.11740318     0.11200
C1224       C  0.57138849  0.08379334  0.10299892    -0.05900
C1225       C  0.58522085  0.08298875  0.05907348    -0.17200
C1226       C  0.57100772  0.07474858  0.03033831     0.11200
S1227       S  0.52128893  0.08189299  0.16919269    -0.32100
S1228       S  0.58882040  0.07681728  0.97280326    -0.32100
H1229       H  0.61463594  0.08738818  0.97464010     0.29200
H1230       H  0.53742462  0.10696518  0.16906477     0.29200
H1231       H  0.50729809  0.05953945  0.10294489     0.19800
H1232       H  0.60715742  0.08832252  0.04746660     0.19800
C1233       C  0.88968889  0.14643619  0.96557647    -0.06000
C1234       C  0.88008420  0.11771213  0.99401617    -0.17100
C1235       C  0.89718891  0.09430446  0.99580369     0.11200
C1236       C  0.92366784  0.09880362  0.96543519    -0.05900
C1237       C  0.93430908  0.12775139  0.44575060    -0.17200
C1238       C  0.91842599  0.15225595  0.44185648     0.11200
S1239       S  0.88518839  0.06072904  0.04134574    -0.32100
S1240       S  0.93275966  0.18632891  0.39887519    -0.32100
H1241       H  0.90771845  0.19922876  0.40007676     0.29200
H1242       H  0.91066570  0.05615387  0.05099010     0.29200
H1243       H  0.86119809  0.11481662  0.02040307     0.19800
H1244       H  0.95445848  0.12972423  0.42274324     0.19800
C1245       C  0.79590144  0.21137240  0.14019884    -0.06000
C1246       C  0.79064316  0.18683441  0.12450201    -0.17100
C1247       C  0.80992266  0.17986539  0.08942082     0.11200
C1248       C  0.83415242  0.19911533  0.06735940    -0.05900
C1249       C  0.83848296  0.22464607  0.08167515    -0.17200
C1250       C  0.81998087  0.23070795  0.11823829     0.11200
S1251       S  0.80381460  0.14430060  0.07890044    -0.32100
S1252       S  0.82924671  0.26261869  0.13604559    -0.32100
H1253       H  0.80318083  0.26623280  0.16122862     0.29200
H1254       H  0.83079139  0.13648436  0.07580283     0.29200
H1255       H  0.77227408  0.17182401  0.14180351     0.19800
H1256       H  0.85719087  0.23928714  0.06548287     0.19800
C1257       C  0.79634432  0.19633710  0.42974620    -0.06000
C1258       C  0.80960422  0.22045794  0.43755908    -0.17100
C1259       C  0.82979715  0.21489751  0.95802870     0.11200
C1260       C  0.83677120  0.18544210  0.97448120    -0.05900
C1261       C  0.82465095  0.16286850  0.46877844    -0.17200
C1262       C  0.80422552  0.16713017  0.44514508     0.11200
S1263       S  0.84921463  0.24763572  0.95884693    -0.32100
S1264       S  0.78875716  0.13442517  0.43668313    -0.32100
H1265       H  0.76410691  0.14633426  0.43140444     0.29200
H1266       H  0.87455064  0.23514514  0.95281394     0.29200
H1267       H  0.80454704  0.24302898  0.42434271     0.19800
H1268       H  0.83014526  0.14044040  0.48135748     0.19800
C1269       C  0.54680566  0.44006887  0.49618032    -0.06000
C1270       C  0.53778730  0.41198048  0.03158643    -0.17100
C1271       C  0.55957675  0.39428419  0.03656219     0.11200
C1272       C  0.58371509  0.39898449  0.00055574    -0.05900
C1273       C  0.58883597  0.42427878  0.45576513    -0.17200
C1274       C  0.56712199  0.44255507  0.45571625     0.11200
S1275       S  0.55820764  0.36978506  0.09148153    -0.32100
S1276       S  0.56799127  0.47079646  0.40436050    -0.32100
H1277       H  0.56387186  0.96697155  0.43913851     0.28900
H1278       H  0.53065611  0.37242677  0.11194399     0.29200
H1279       H  0.52047600  0.41056227  0.06024728     0.19800
H1280       H  0.60571801  0.42829612  0.42570574     0.19800
C1281       C  0.65906438  0.31327549  0.16611391    -0.06000
C1282       C  0.63932109  0.30187899  0.14935988    -0.17100
C1283       C  0.62859106  0.32056239  0.11655840     0.11200
C1284       C  0.63939016  0.35093352  0.09798370    -0.05900
C1285       C  0.65974122  0.36176275  0.11465095    -0.17200
C1286       C  0.66858271  0.34377567  0.14989387     0.11200
S1287       S  0.59985984  0.30563963  0.10222884    -0.32100
S1288       S  0.69198679  0.36005029  0.17404588    -0.32100
H1289       H  0.69470155  0.38939719  0.14589763     0.29200
H1290       H  0.59812187  0.27620067  0.12968142     0.29200
H1291       H  0.63144938  0.27866413  0.16363503     0.19800
H1292       H  0.66859869  0.38467682  0.10054744     0.19800
C1293       C  0.66023128  0.30782945  0.44825367    -0.06000
C1294       C  0.63376997  0.31668217  0.44854086    -0.17100
C1295       C  0.62145300  0.33577751  0.47409310     0.11200
C1296       C  0.63640720  0.34850391  0.49816756    -0.05900
C1297       C  0.66294701  0.33936928  0.49790196    -0.17200
C1298       C  0.67446532  0.31852556  0.47499579     0.11200
S1299       S  0.58012825  0.33588021  0.98458771    -0.32100
S1300       S  0.70737797  0.30629412  0.48052208    -0.32100
H1301       H  0.71524641  0.32978423  0.49660482     0.29200
H1302       H  0.57319976  0.33363843  0.03082735     0.29200
H1303       H  0.62219760  0.30805540  0.42927868     0.19800
H1304       H  0.67497779  0.34860586  0.51577269     0.19800
C1305       C  0.89609115  0.44633397  0.50985836    -0.06000
C1306       C  0.87647351  0.44714576  0.02657153    -0.17100
C1307       C  0.85197040  0.43366815  0.02464099     0.11200
C1308       C  0.84929589  0.42023238  0.49676162    -0.05900
C1309       C  0.87512848  0.42146026  0.46672475    -0.17200
C1310       C  0.89827480  0.43521926  0.47191793     0.11200
S1311       S  0.82111721  0.43526564  0.06680215    -0.32100
S1312       S  0.92922079  0.44022913  0.42675097    -0.32100
H1313       H  0.93827542  0.46871407  0.42823623     0.29200
H1314       H  0.80461922  0.41368541  0.05879087     0.29200
H1315       H  0.87626960  0.45773953  0.05329932     0.19800
H1316       H  0.87677412  0.41398219  0.43661490     0.19800
C1317       C  0.80465170  0.36399273  0.02199837    -0.06000
C1318       C  0.77665338  0.35416206  0.03285224    -0.17100
C1319       C  0.76315702  0.33433209  0.07420967     0.11200
C1320       C  0.77693957  0.32580496  0.10846671    -0.05900
C1321       C  0.80490249  0.33532553  0.09798344    -0.17200
C1322       C  0.81918153  0.35263031  0.05472251     0.11200
S1323       S  0.72819378  0.32160347  0.08059538    -0.32100
S1324       S  0.85591081  0.35616803  0.04321147    -0.32100
H1325       H  0.86075747  0.35972812  0.99675754     0.29200
H1326       H  0.71932064  0.32245113  0.12537780     0.29200
H1327       H  0.76468441  0.36249892  0.00924505     0.19800
H1328       H  0.81611051  0.32789487  0.12313311     0.19800
C1329       C  0.79174202  0.36736330  0.43168074    -0.06000
C1330       C  0.76988318  0.37527426  0.41239702    -0.17100
C1331       C  0.75776593  0.35562903  0.39464108     0.11200
C1332       C  0.76702996  0.32686767  0.39748422    -0.05900
C1333       C  0.78780229  0.31821420  0.41877901    -0.17200
C1334       C  0.80090227  0.33846197  0.43446129     0.11200
S1335       S  0.73082896  0.36881355  0.36849447    -0.32100
S1336       S  0.83106116  0.32718101  0.45217106    -0.32100
H1337       H  0.84854219  0.35360034  0.92963488     0.29200
H1338       H  0.71696871  0.34058709  0.37661450     0.29200
H1339       H  0.76245993  0.39724277  0.41035038     0.19800
H1340       H  0.79525001  0.29631400  0.42011602     0.19800
N1341       N  0.81443430  0.38707052  0.48293394    -0.03400
C1342       C  0.82573082  0.41472907  0.47982274    -0.00800
C1343       C  0.82332722  0.43496886  0.93835597    -0.23700
C1344       C  0.81148053  0.41923828  0.91619125    -0.23900
C1345       C  0.80764962  0.38976602  0.94160841    -0.00900
H1346       H  0.83181851  0.45810643  0.92501127     0.12900
H1347       H  0.80712115  0.42819764  0.88396215     0.12900
N1348       N  0.62578719  0.37079393  0.52192740    -0.03400
C1349       C  0.61904340  0.39783436  0.49957584    -0.00800
C1350       C  0.63093317  0.42078304  0.51095303    -0.23700
C1351       C  0.64088670  0.40793583  0.54648714    -0.23900
C1352       C  0.63697823  0.37718611  0.55381257    -0.00900
H1353       H  0.62714449  0.44422148  0.50175661     0.12900
H1354       H  0.64783393  0.42031415  0.56678959     0.12900
N1355       N  0.85732824  0.18233993  0.50386864    -0.03400
C1356       C  0.88393339  0.17736545  0.48794401    -0.00800
C1357       C  0.90020793  0.18885499  0.51000972    -0.23700
C1358       C  0.88323882  0.19963174  0.54196656    -0.23900
C1359       C  0.85705626  0.19490170  0.53817715    -0.00900
H1360       H  0.92161972  0.18572331  0.50769042     0.12900
H1361       H  0.88914755  0.20807197  0.56731716     0.12900
N1362       N  0.51653310  0.00534718  0.00060930    -0.36500
N1363       N  0.97273708  0.46818478  0.99587701    -0.57100
N1364       N  0.94549205  0.02102000  0.98366752    -0.36500
N1365       N  0.98868356  0.06347567  0.98258682    -0.57100
C1366       C  0.53127862  0.48540222  0.00118373     0.27100
C1367       C  0.52591528  0.01931711  0.52732159     0.27100
C1368       C  0.92438473  0.49873365  0.98035413     0.27100
C1369       C  0.93624148  0.04718439  0.96504792     0.27100
C1370       C  0.49404125  0.45386382  0.99085287     0.35700
C1371       C  0.94852796  0.45329368  0.00081621     0.35700
C1372       C  0.00629248  0.07364627  0.51620412     0.35700
C1373       C  0.96879470  0.08238104  0.97881619     0.35700
C1374       C  0.55143154  0.98030378  0.01764255    -0.21800
C1375       C  0.53981147  0.00106043  0.55481305    -0.21800
C1376       C  0.90642644  0.51362555  0.95758978    -0.21800
C1377       C  0.91519607  0.04155638  0.94667133    -0.21800
C1378       C  0.48143553  0.42603076  0.99522582    -0.22800
C1379       C  0.95139227  0.42289812  0.00745358    -0.22800
C1380       C  0.99891502  0.10106741  0.52335532    -0.22800
C1381       C  0.97419493  0.10557541  0.51319736    -0.22800
C1382       C  0.52122752  0.45908279  0.99281176    -0.18200
C1383       C  0.52354649  0.05038459  0.52432200    -0.18200
C1384       C  0.94382679  0.07563193  0.96908784    -0.18200
C1385       C  0.92505847  0.46729623  0.99302502    -0.18200
H1386       H  0.56474012  0.96268741  0.02431834     0.14700
H1387       H  0.54992589  0.00716143  0.57790390     0.14700
H1388       H  0.89119280  0.50387162  0.94548351     0.14700
H1389       H  0.90333884  0.05775465  0.93017620     0.14700
H1390       H  0.49041961  0.40482213  0.99888579     0.13000
H1391       H  0.93584356  0.40528702  0.01162698     0.13000
H1392       H  0.01004743  0.11622141  0.53500402     0.13000
H1393       H  0.96261613  0.12476356  0.51552590     0.13000
H1394       H  0.49962672  0.01088472  0.98841428     0.26300
H1395       H  0.95868894  0.01808065  0.00450430     0.26300
N1396       N  0.60787435  0.11247663  0.62288912    -0.03400
C1397       C  0.58562517  0.09281511  0.63072657    -0.00800
C1398       C  0.57774316  0.07714060  0.67582052    -0.23700
C1399       C  0.59493098  0.08789084  0.69655057    -0.23900
C1400       C  0.61336647  0.10938418  0.66348351    -0.00900
H1401       H  0.56079904  0.06010586  0.69218986     0.12900
H1402       H  0.59350221  0.08142361  0.73226767     0.12900
O1403       O  0.76400004  0.31197448  0.83304310    -0.75200
O1404       O  0.74476499  0.27932838  0.90200148    -0.54100
C1405       C  0.75893602  0.30351611  0.87613762     0.78500
O1406       O  0.66147069  0.30089726  0.74149047    -0.59800
O1407       O  0.68451938  0.27797686  0.68934485    -0.52800
C1408       C  0.66802407  0.29679421  0.70191581     0.70600
O1409       O  0.66301299  0.29657238  0.88232095    -0.74300
O1410       O  0.68675593  0.27146959  0.93031361    -0.54900
C1411       C  0.66958700  0.29058203  0.91998351     0.76600
O1412       O  0.76762937  0.31273108  0.69040679    -0.59500
O1413       O  0.74373187  0.28486821  0.66034105    -0.52600
C1414       C  0.76113302  0.30656816  0.65682769     0.73200
Zr1415     Zr  0.75455999  0.29427621  0.77275481     2.54700
O1416       O  0.75144371  0.34820380  0.75393338    -0.80100
O1417       O  0.80443517  0.30032413  0.75389439    -0.93500
Zr1418     Zr  0.67337790  0.28169185  0.81218789     2.64700
O1419       O  0.66654287  0.33491135  0.79660580    -0.98400
O1420       O  0.62430875  0.26733130  0.83894644    -0.80500
O1421       O  0.71443921  0.28726642  0.83326515    -0.83800
O1422       O  0.71357644  0.28995106  0.75163720    -2.18600
O1423       O  0.77840351  0.20643298  0.72197668    -0.67200
O1424       O  0.75024331  0.22523792  0.67738593    -0.51800
C1425       C  0.77218242  0.21361539  0.68395255     0.71500
O1426       O  0.66230280  0.17732769  0.91932998    -0.60100
O1427       O  0.68791092  0.20308605  0.95013299    -0.52100
C1428       C  0.66908509  0.18298491  0.95301002     0.73300
O1429       O  0.66693314  0.17713994  0.77603328    -0.71500
O1430       O  0.68780973  0.20959392  0.70775907    -0.50200
C1431       C  0.67218054  0.18603593  0.73269996     0.74700
O1432       O  0.77821271  0.19734320  0.86578486    -0.66900
O1433       O  0.75266690  0.21735820  0.91961071    -0.54100
C1434       C  0.77315720  0.20339312  0.90424881     0.73100
Zr1435     Zr  0.75852866  0.20600264  0.80075520     2.77500
O1436       O  0.75031717  0.15175147  0.81890144    -0.97600
O1437       O  0.80714127  0.19873628  0.78265064    -0.78400
Zr1438     Zr  0.67776257  0.19409837  0.83715865     2.70100
O1439       O  0.68115486  0.14021211  0.85673495    -0.79700
O1440       O  0.62806608  0.18885761  0.85233287    -0.98800
Zr1441     Zr  0.71689284  0.24189225  0.88774516     2.21500
Zr1442     Zr  0.71540419  0.24665539  0.72415605     2.11100
O1443       O  0.71820987  0.20061290  0.77732763    -2.47500
O1444       O  0.71837716  0.19796196  0.86130729    -0.79500
O1445       O  0.75663569  0.25117373  0.74610085    -0.71700
O1446       O  0.67543287  0.23669535  0.86630958    -2.32600
O1447       O  0.75757221  0.24956843  0.82712247    -2.28800
O1448       O  0.67430164  0.23911227  0.78336901    -0.73400
H1449       H  0.71304866  0.30792527  0.72848606     0.78600
H1450       H  0.65965789  0.23414640  0.89177696     0.79700
H1451       H  0.71941373  0.18409631  0.76378486     0.81900
H1452       H  0.77373066  0.25241205  0.83702351     0.79500
H1453       H  0.61655298  0.27962457  0.81532646     0.42500
H1454       H  0.62275979  0.16747911  0.86867581     0.41500
H1455       H  0.69388273  0.13695898  0.87627916     0.41200
H1456       H  0.76331980  0.14612781  0.79402312     0.39100
H1457       H  0.81632952  0.21909215  0.76706179     0.42200
H1458       H  0.81060417  0.30183144  0.72127998     0.37000
H1459       H  0.73283337  0.35065945  0.77120668     0.43100
H1460       H  0.64819411  0.33601819  0.81609397     0.39600
H1461       H  0.75761511  0.14415126  0.84541392     0.44500
H1462       H  0.80977812  0.28062256  0.76860711     0.43200
H1463       H  0.67954476  0.34364111  0.80962117     0.43300
H1464       H  0.62144179  0.19983642  0.87529704     0.43700
C1465       C  0.65947245  0.16733935  0.71034504    -0.06000
C1466       C  0.66151460  0.13630559  0.72237605    -0.17100
C1467       C  0.64890366  0.11720837  0.70405195     0.11200
C1468       C  0.63301717  0.12906629  0.67388562    -0.05900
C1469       C  0.63214332  0.16026973  0.66006618    -0.17200
C1470       C  0.64502482  0.17944144  0.67807204     0.11200
S1471       S  0.65391431  0.07787923  0.72047347    -0.32100
S1472       S  0.64023847  0.21876026  0.66137953    -0.32100
H1473       H  0.63719677  0.22329662  0.70433064     0.29200
H1474       H  0.65096818  0.07203359  0.68055323     0.29200
H1475       H  0.67310260  0.12684145  0.74625319     0.19800
H1476       H  0.61975317  0.16968643  0.63754663     0.19800
C1477       C  0.62460977  0.13064048  0.58019335    -0.06000
C1478       C  0.65266872  0.12656572  0.56750573    -0.17100
C1479       C  0.66977946  0.14319545  0.52605600     0.11200
C1480       C  0.65373241  0.16508521  0.99832484    -0.05900
C1481       C  0.62526341  0.16649983  0.01182282    -0.17200
C1482       C  0.61385431  0.15288300  0.55133743     0.11200
S1483       S  0.70551884  0.13624995  0.51338109    -0.32100
S1484       S  0.57948312  0.16329369  0.56746232    -0.32100
H1485       H  0.57827352  0.15750137  0.61349505     0.29200
H1486       H  0.70683842  0.14751135  0.96885293     0.29200
H1487       H  0.66118013  0.10997486  0.58999968     0.19800
H1488       H  0.61525059  0.18107924  0.98926048     0.19800
C1489       C  0.54033079  0.06526245  0.54721449    -0.06000
C1490       C  0.52680392  0.07450250  0.58503602    -0.17100
C1491       C  0.54128647  0.08656140  0.60962788     0.11200
C1492       C  0.57032927  0.08811168  0.59811510    -0.05900
C1493       C  0.58402578  0.08016080  0.55905827    -0.17200
C1494       C  0.56931176  0.06913247  0.53322462     0.11200
S1495       S  0.52113703  0.09941193  0.65564865    -0.32100
S1496       S  0.58753166  0.05933764  0.48305236    -0.32100
H1497       H  0.61399984  0.06812759  0.48432935     0.29200
H1498       H  0.54147183  0.12028351  0.65604380     0.29200
H1499       H  0.50461564  0.07211465  0.59571550     0.19800
H1500       H  0.60617089  0.08126724  0.55000982     0.19800
C1501       C  0.89285284  0.15050116  0.47335106    -0.06000
C1502       C  0.88219184  0.12278776  0.50425602    -0.17100
C1503       C  0.89815681  0.09842145  0.50877081     0.11200
C1504       C  0.92501742  0.10123823  0.48032668    -0.05900
C1505       C  0.93119387  0.12606969  0.93181915    -0.17200
C1506       C  0.91460612  0.14995036  0.93196861     0.11200
S1507       S  0.88397758  0.06538024  0.55416799    -0.32100
S1508       S  0.92795524  0.18584750  0.89298999    -0.32100
H1509       H  0.90280511  0.19877323  0.89900561     0.29200
H1510       H  0.90872049  0.05885442  0.56556603     0.29200
H1511       H  0.86283731  0.12124126  0.52916642     0.19800
H1512       H  0.95096700  0.12946727  0.90738984     0.19800
C1513       C  0.79261918  0.21001461  0.64436089    -0.06000
C1514       C  0.79015547  0.18422051  0.62986116    -0.17100
C1515       C  0.81039981  0.17888220  0.59411964     0.11200
C1516       C  0.83257245  0.20081442  0.57064202    -0.05900
C1517       C  0.83418528  0.22711433  0.58426351    -0.17200
C1518       C  0.81515540  0.23150613  0.62158235     0.11200
S1519       S  0.80945071  0.14262183  0.58306232    -0.32100
S1520       S  0.82254957  0.26405222  0.63939622    -0.32100
H1521       H  0.80027243  0.26056388  0.67703349     0.29200
H1522       H  0.78378301  0.13120454  0.61313526     0.29200
H1523       H  0.77313846  0.16755661  0.64824588     0.19800
H1524       H  0.85147625  0.24370752  0.56719011     0.19800
C1525       C  0.79365925  0.19584447  0.93091596    -0.06000
C1526       C  0.80804857  0.21962340  0.93778592    -0.17100
C1527       C  0.83050518  0.21637879  0.45950989     0.11200
C1528       C  0.83756592  0.18715431  0.47718577    -0.05900
C1529       C  0.82281259  0.16160409  0.96674182    -0.17200
C1530       C  0.80139664  0.16647044  0.94530034     0.11200
S1531       S  0.84871157  0.24974060  0.46088721    -0.32100
S1532       S  0.78425765  0.13422630  0.93843878    -0.32100
H1533       H  0.75891118  0.14621549  0.93914473     0.29200
H1534       H  0.87456855  0.23847704  0.45338954     0.29200
H1535       H  0.80317361  0.24233017  0.92516371     0.19800
H1536       H  0.82802160  0.13897329  0.97869161     0.19800
C1537       C  0.53965567  0.43439015  0.99168590    -0.06000
C1538       C  0.54699161  0.41732160  0.53458888    -0.17100
C1539       C  0.56890723  0.39939163  0.53510509     0.11200
C1540       C  0.59093565  0.40386879  0.49565142    -0.05900
C1541       C  0.58386562  0.41867821  0.95886516    -0.17200
C1542       C  0.56208369  0.43634795  0.95407346     0.11200
S1543       S  0.56999630  0.37411013  0.58817441    -0.32100
S1544       S  0.56546263  0.46355949  0.90076877    -0.32100
H1545       H  0.53225631  0.95928898  0.90971131     0.28900
H1546       H  0.54816250  0.38441970  0.61590998     0.29200
H1547       H  0.53094029  0.41532075  0.56517686     0.19800
H1548       H  0.60230188  0.42273960  0.93133915     0.19800
C1549       C  0.65778413  0.31717658  0.66729369    -0.06000
C1550       C  0.64072191  0.30585106  0.64586622    -0.17100
C1551       C  0.63210187  0.32468051  0.61052086     0.11200
C1552       C  0.64330909  0.35512741  0.59304326    -0.05900
C1553       C  0.66054181  0.36591291  0.61538756    -0.17200
C1554       C  0.66649612  0.34787899  0.65357717     0.11200
S1555       S  0.60545990  0.30935528  0.59181484    -0.32100
S1556       S  0.68671275  0.36405428  0.68288007    -0.32100
H1557       H  0.68932036  0.39384145  0.65625665     0.29200
H1558       H  0.60253954  0.28003692  0.62012313     0.29200
H1559       H  0.63343257  0.28237035  0.65811044     0.19800
H1560       H  0.66990189  0.38858716  0.60303814     0.19800
C1561       C  0.65622157  0.30767578  0.95249243    -0.06000
C1562       C  0.62924579  0.31513558  0.95375139    -0.17100
C1563       C  0.61591769  0.33303268  0.98075380     0.11200
C1564       C  0.63036013  0.34625792  0.00504504    -0.05900
C1565       C  0.65742396  0.33861252  0.00351184    -0.17200
C1566       C  0.66982768  0.31872263  0.97971752     0.11200
S1567       S  0.58616791  0.34123773  0.47609742    -0.32100
S1568       S  0.70322360  0.30915268  0.98541760    -0.32100
H1569       H  0.71370753  0.31365059  0.93929309     0.29200
H1570       H  0.57878919  0.34017182  0.52197752     0.29200
H1571       H  0.61802876  0.30615557  0.93434553     0.19800
H1572       H  0.66958145  0.34856129  0.02050777     0.19800
C1573       C  0.90091123  0.44880294  0.99288326    -0.06000
C1574       C  0.87068751  0.44301232  0.54194344    -0.17100
C1575       C  0.84708852  0.43053865  0.53541530     0.11200
C1576       C  0.85217610  0.42086050  0.98896118    -0.05900
C1577       C  0.87704089  0.42069385  0.95717096    -0.17200
C1578       C  0.90114443  0.43527799  0.95784721     0.11200
S1579       S  0.81493071  0.43055646  0.57575871    -0.32100
S1580       S  0.93067318  0.43789760  0.91095280    -0.32100
H1581       H  0.94212268  0.46598885  0.90996660     0.29200
H1582       H  0.79869576  0.41266397  0.56079235     0.29200
H1583       H  0.86898256  0.45188453  0.57078942     0.19800
H1584       H  0.87709091  0.41140479  0.92914271     0.19800
C1585       C  0.80235143  0.36444818  0.52506003    -0.06000
C1586       C  0.77391181  0.35679391  0.53708648    -0.17100
C1587       C  0.76025606  0.33723739  0.57853179     0.11200
C1588       C  0.77472052  0.32611090  0.61108701    -0.05900
C1589       C  0.80304590  0.33400960  0.59964781    -0.17200
C1590       C  0.81721630  0.35139751  0.55647199     0.11200
S1591       S  0.72410102  0.32886233  0.58801894    -0.32100
S1592       S  0.85403205  0.35331596  0.54352174    -0.32100
H1593       H  0.85839811  0.36029150  0.49667418     0.29200
H1594       H  0.71802450  0.32826837  0.63356078     0.29200
H1595       H  0.76186156  0.36679382  0.51432896     0.19800
H1596       H  0.81450071  0.32561552  0.62408769     0.19800
C1597       C  0.79451401  0.36592245  0.92831423    -0.06000
C1598       C  0.77292716  0.37354330  0.90830044    -0.17100
C1599       C  0.76073595  0.35345333  0.89155859     0.11200
C1600       C  0.76930646  0.32424869  0.89696856    -0.05900
C1601       C  0.78995387  0.31591841  0.91868400    -0.17200
C1602       C  0.80338272  0.33678308  0.93287833     0.11200
S1603       S  0.73487230  0.36717458  0.86287058    -0.32100
S1604       S  0.83332154  0.32575609  0.95156799    -0.32100
H1605       H  0.84627704  0.35499134  0.42988606     0.29200
H1606       H  0.72218354  0.33964501  0.86427205     0.29200
H1607       H  0.76569312  0.39566754  0.90489477     0.19800
H1608       H  0.79700881  0.29376510  0.92156068     0.19800
N1609       N  0.81855776  0.88839556  0.99622511    -0.03400
C1610       C  0.82980564  0.91599437  0.99369620    -0.00800
C1611       C  0.83254738  0.93596239  0.43639217    -0.23700
C1612       C  0.81655162  0.92054652  0.41949504    -0.23900
C1613       C  0.80961461  0.89250965  0.44951288    -0.00900
H1614       H  0.84339364  0.95784744  0.41934317     0.12900
H1615       H  0.81140969  0.92853948  0.38770807     0.12900
N1616       N  0.61539588  0.86358172  0.03487827    -0.03400
C1617       C  0.60587220  0.88958721  0.01442101    -0.00800
C1618       C  0.61227053  0.91275994  0.03119690    -0.23700
C1619       C  0.62260398  0.90066250  0.06648761    -0.23900
C1620       C  0.62413543  0.87058868  0.06884268    -0.00900
H1621       H  0.60534592  0.93503160  0.02415211     0.12900
H1622       H  0.62682553  0.91245647  0.08967444     0.12900
N1623       N  0.85766297  0.68028411  0.02334047    -0.03400
C1624       C  0.88283324  0.66998450  0.01402811    -0.00800
C1625       C  0.89722654  0.67507890  0.04349239    -0.23700
C1626       C  0.88038540  0.68836441  0.07239387    -0.23900
C1627       C  0.85617783  0.69089112  0.05980038    -0.00900
H1628       H  0.91682826  0.66713956  0.04651334     0.12900
H1629       H  0.88459820  0.69367976  0.10140310     0.12900
N1630       N  0.52282682  0.51467486  0.50962028    -0.36500
N1631       N  0.97971311  0.97387937  0.49529279    -0.57100
N1632       N  0.93404974  0.51685926  0.50948679    -0.36500
N1633       N  0.97966410  0.55506570  0.51005925    -0.57100
C1634       C  0.52338687  0.97464404  0.51631670     0.27100
C1635       C  0.53465298  0.53003362  0.01214976     0.27100
C1636       C  0.93043492  0.00239330  0.48094187     0.27100
C1637       C  0.92561023  0.54413704  0.49334055     0.27100
C1638       C  0.49422581  0.94849610  0.48239296     0.35700
C1639       C  0.95595286  0.95808565  0.50024956     0.35700
C1640       C  0.00279375  0.56752739  0.01450198     0.35700
C1641       C  0.96167047  0.57610265  0.50540884     0.35700
C1642       C  0.55782149  0.49093044  0.52915496    -0.21800
C1643       C  0.55483987  0.51407231  0.02771543    -0.21800
C1644       C  0.91252458  0.01672383  0.45760048    -0.21800
C1645       C  0.90326704  0.54072222  0.47668261    -0.21800
C1646       C  0.48494215  0.92353007  0.47183335    -0.22800
C1647       C  0.95977921  0.92792738  0.50639916    -0.22800
C1648       C  0.99635060  0.59526415  0.02116894    -0.22800
C1649       C  0.97214838  0.60093728  0.00980146    -0.22800
C1650       C  0.51714920  0.94993114  0.50034895    -0.18200
C1651       C  0.52959236  0.55980238  0.01519086    -0.18200
C1652       C  0.93637188  0.57205283  0.49523225    -0.18200
C1653       C  0.93203965  0.97112569  0.49283109    -0.18200
H1654       H  0.57185609  0.47404457  0.53570843     0.14700
H1655       H  0.56921665  0.52124995  0.04384133     0.14700
H1656       H  0.89820602  0.00661873  0.44417475     0.14700
H1657       H  0.89186497  0.55814445  0.46164408     0.14700
H1658       H  0.49534273  0.90366148  0.46901486     0.13000
H1659       H  0.94476166  0.90973585  0.51078704     0.13000
H1660       H  0.00760007  0.60970180  0.03379319     0.13000
H1661       H  0.96114269  0.62046784  0.01236916     0.13000
H1662       H  0.50687334  0.52013640  0.49487361     0.26300
H1663       H  0.94854051  0.51205629  0.52780611     0.26300
N1664       N  0.60797761  0.61860312  0.12650877    -0.03400
C1665       C  0.58612004  0.59902880  0.13172557    -0.00800
C1666       C  0.57720365  0.58255755  0.17639321    -0.23700
C1667       C  0.59321630  0.59274575  0.19943490    -0.23900
C1668       C  0.61218501  0.61461672  0.16822734    -0.00900
H1669       H  0.56043700  0.56517410  0.19099147     0.12900
H1670       H  0.59076022  0.58545537  0.23542049     0.12900
O1671       O  0.75805942  0.81821862  0.34647610    -0.75200
O1672       O  0.73905401  0.78507782  0.41503138    -0.54100
C1673       C  0.75292963  0.80952792  0.38968052     0.78500
O1674       O  0.65673795  0.80068004  0.25171131    -0.59800
O1675       O  0.68131199  0.77862566  0.19970359    -0.52800
C1676       C  0.66371195  0.79644147  0.21216634     0.70600
O1677       O  0.65409363  0.79474879  0.39506750    -0.74300
O1678       O  0.68103876  0.77444202  0.44087477    -0.54900
C1679       C  0.66124614  0.79021213  0.43214119     0.76600
O1680       O  0.76295155  0.81869293  0.20330454    -0.59500
O1681       O  0.74136492  0.78926701  0.17222725    -0.52600
C1682       C  0.75781740  0.81169318  0.16934260     0.73200
Zr1683     Zr  0.74915874  0.80045824  0.28526184     2.54700
O1684       O  0.74183483  0.85352234  0.26971169    -0.80100
O1685       O  0.79887618  0.80974317  0.26225127    -0.93500
Zr1686     Zr  0.66849916  0.78239245  0.32324070     2.64700
O1687       O  0.66004482  0.83492605  0.31451542    -0.98400
O1688       O  0.61997853  0.76541070  0.34600384    -0.80500
O1689       O  0.70879122  0.79095178  0.34517486    -0.83800
O1690       O  0.70888906  0.79327575  0.26296894    -2.18600
O1691       O  0.77760877  0.71318762  0.23163296    -0.67200
O1692       O  0.74800729  0.72890588  0.18836686    -0.51800
C1693       C  0.77057275  0.71877361  0.19428233     0.71500
O1694       O  0.66336275  0.67911102  0.43030561    -0.60100
O1695       O  0.68661244  0.70746863  0.46105848    -0.52100
C1696       C  0.66914184  0.68613883  0.46385541     0.73300
O1697       O  0.66586103  0.67977731  0.28620258    -0.71500
O1698       O  0.68696134  0.71215760  0.21809975    -0.50200
C1699       C  0.67108347  0.68872291  0.24279410     0.74700
O1700       O  0.77647204  0.70232029  0.37726325    -0.66900
O1701       O  0.75044575  0.72250552  0.43043017    -0.54100
C1702       C  0.77095971  0.70814870  0.41589815     0.73100
Zr1703     Zr  0.75845719  0.71312369  0.31046608     2.77500
O1704       O  0.75674315  0.65889992  0.32373038    -0.97600
O1705       O  0.80825899  0.71569151  0.29023745    -0.78400
Zr1706     Zr  0.67832073  0.69525284  0.34782366     2.70100
O1707       O  0.69062637  0.64376543  0.36035673    -0.79700
O1708       O  0.62969257  0.67843412  0.37331084    -0.98800
Zr1709     Zr  0.71394053  0.74645340  0.39869609     2.21500
Zr1710     Zr  0.71324943  0.75005216  0.23518958     2.11100
O1711       O  0.71856592  0.70462457  0.28739504    -2.47500
O1712       O  0.71839519  0.70264692  0.37162154    -0.79500
O1713       O  0.75385586  0.75775815  0.25726235    -0.71700
O1714       O  0.67317679  0.73804163  0.37669925    -2.32600
O1715       O  0.75479083  0.75628617  0.33831724    -2.28800
O1716       O  0.67213008  0.73954994  0.29480190    -0.73400
H1717       H  0.70760132  0.81093069  0.23982103     0.78600
H1718       H  0.65725270  0.73452995  0.40211147     0.79700
H1719       H  0.72062903  0.68825482  0.27349725     0.81900
H1720       H  0.77071553  0.75983823  0.34844553     0.79500
H1721       H  0.61101439  0.78319975  0.33348135     0.42500
H1722       H  0.62162256  0.69089227  0.35025623     0.41500
H1723       H  0.69097310  0.63754038  0.39236561     0.41200
H1724       H  0.77463753  0.65529524  0.30539836     0.39100
H1725       H  0.81406080  0.73633964  0.28966502     0.42200
H1726       H  0.80544638  0.79104836  0.25537102     0.37000
H1727       H  0.73091793  0.85684102  0.24733153     0.43100
H1728       H  0.67588291  0.84613677  0.29021199     0.39600
H1729       H  0.75771979  0.65124988  0.35528922     0.44500
H1730       H  0.80417973  0.80991995  0.29008238     0.43200
H1731       H  0.64425414  0.83781359  0.30120899     0.43300
H1732       H  0.62861379  0.65804300  0.36907098     0.43700
C1733       C  0.65801147  0.67040379  0.21991599    -0.06000
C1734       C  0.65804123  0.63908441  0.23341550    -0.17100
C1735       C  0.64565335  0.62059676  0.21376417     0.11200
C1736       C  0.63150193  0.63331964  0.18121961    -0.05900
C1737       C  0.63249630  0.66465644  0.16626047    -0.17200
C1738       C  0.64566782  0.68320270  0.18487967     0.11200
S1739       S  0.64928326  0.58095562  0.23086701    -0.32100
S1740       S  0.64432833  0.72292693  0.16435865    -0.32100
H1741       H  0.63937011  0.72828121  0.20708968     0.29200
H1742       H  0.64794487  0.57558907  0.18985230     0.29200
H1743       H  0.66822317  0.62891230  0.25903712     0.19800
H1744       H  0.62160087  0.67484725  0.14172218     0.19800
C1745       C  0.62572495  0.63711482  0.08508050    -0.06000
C1746       C  0.65390810  0.63333486  0.07504935    -0.17100
C1747       C  0.67195419  0.64994361  0.03460511     0.11200
C1748       C  0.65440484  0.66855229  0.50920604    -0.05900
C1749       C  0.62684779  0.67303255  0.52594988    -0.17200
C1750       C  0.61574077  0.65902124  0.05453061     0.11200
S1751       S  0.70770516  0.64330866  0.02485565    -0.32100
S1752       S  0.58104346  0.66909456  0.06718356    -0.32100
H1753       H  0.57775480  0.66277521  0.11390820     0.29200
H1754       H  0.70500134  0.64792335  0.47296616     0.29200
H1755       H  0.66177324  0.61688475  0.09870713     0.19800
H1756       H  0.61689190  0.68899102  0.50498264     0.19800
C1757       C  0.54516766  0.57364751  0.04088994    -0.06000
C1758       C  0.53036242  0.57848497  0.08162709    -0.17100
C1759       C  0.54316121  0.59065899  0.10803689     0.11200
C1760       C  0.57213541  0.59498395  0.09699793    -0.05900
C1761       C  0.58711597  0.59129469  0.05529573    -0.17200
C1762       C  0.57374701  0.58186868  0.02633918     0.11200
S1763       S  0.52096273  0.60123744  0.15458325    -0.32100
S1764       S  0.59314623  0.58013745  0.97129208    -0.32100
H1765       H  0.61776368  0.59430866  0.97213929     0.29200
H1766       H  0.53931242  0.62431212  0.15478421     0.29200
H1767       H  0.50832469  0.57341030  0.09246484     0.19800
H1768       H  0.60922260  0.59490376  0.04595350     0.19800
C1769       C  0.89056588  0.64617135  0.99149915    -0.06000
C1770       C  0.88005120  0.61703893  0.01725020    -0.17100
C1771       C  0.89558803  0.59269265  0.01430252     0.11200
C1772       C  0.92132182  0.59703632  0.98220231    -0.05900
C1773       C  0.92934353  0.62211385  0.44807767    -0.17200
C1774       C  0.91532771  0.64802362  0.44080941     0.11200
S1775       S  0.88313140  0.55770733  0.05661276    -0.32100
S1776       S  0.93058721  0.67865850  0.39210825    -0.32100
H1777       H  0.90672189  0.69382260  0.39283226     0.29200
H1778       H  0.90866947  0.55120796  0.06501308     0.29200
H1779       H  0.86161783  0.61386079  0.04463263     0.19800
H1780       H  0.94843777  0.62099093  0.42407506     0.19800
C1781       C  0.79052260  0.71440512  0.15484994    -0.06000
C1782       C  0.78641049  0.68909667  0.14010430    -0.17100
C1783       C  0.80697967  0.68133972  0.10744941     0.11200
C1784       C  0.83154983  0.70028098  0.08727967    -0.05900
C1785       C  0.83463880  0.72671526  0.09992249    -0.17200
C1786       C  0.81464469  0.73384012  0.13374180     0.11200
S1787       S  0.80185332  0.64533957  0.09755823    -0.32100
S1788       S  0.82228921  0.76716836  0.14955052    -0.32100
H1789       H  0.79643421  0.76913111  0.17700127     0.29200
H1790       H  0.82848724  0.63734645  0.09772265     0.29200
H1791       H  0.76794712  0.67410175  0.15655566     0.19800
H1792       H  0.85353135  0.74117825  0.08489921     0.19800
C1793       C  0.79109406  0.69986077  0.44363995    -0.06000
C1794       C  0.80197244  0.72243205  0.45815013    -0.17100
C1795       C  0.83314295  0.71578686  0.97676228     0.11200
C1796       C  0.83935462  0.68619369  0.99429304    -0.05900
C1797       C  0.82496949  0.66765574  0.46996061    -0.17200
C1798       C  0.80268771  0.67192085  0.45032597     0.11200
S1799       S  0.85182598  0.74835030  0.97980507    -0.32100
S1800       S  0.78958748  0.64056371  0.43551042    -0.32100
H1801       H  0.76255581  0.64871244  0.44141436     0.29200
H1802       H  0.87679095  0.73532422  0.97838057     0.29200
H1803       H  0.79400171  0.74419669  0.45208608     0.19800
H1804       H  0.83338471  0.64612669  0.47499514     0.19800
C1805       C  0.53173837  0.92196720  0.51135148    -0.06000
C1806       C  0.53291402  0.90454085  0.03457703    -0.17100
C1807       C  0.55468364  0.88676870  0.03918741     0.11200
C1808       C  0.57902331  0.89206984  0.00345784    -0.05900
C1809       C  0.57290908  0.89559873  0.51539368    -0.17200
C1810       C  0.56065082  0.92143876  0.49783937     0.11200
S1811       S  0.55307475  0.86187972  0.09384629    -0.32100
S1812       S  0.58314519  0.95355421  0.46124228    -0.32100
H1813       H  0.53957858  0.47298538  0.41329445     0.28900
H1814       H  0.52460628  0.86120921  0.11167309     0.29200
H1815       H  0.51568445  0.90293452  0.06345169     0.19800
H1816       H  0.59501058  0.89646750  0.50880362     0.19800
C1817       C  0.65232346  0.81517685  0.17745256    -0.06000
C1818       C  0.63419166  0.80217075  0.15939197    -0.17100
C1819       C  0.62423854  0.81932571  0.12429279     0.11200
C1820       C  0.63402121  0.84993358  0.10509856    -0.05900
C1821       C  0.65241978  0.86256086  0.12364393    -0.17200
C1822       C  0.66051739  0.84598034  0.16077574     0.11200
S1823       S  0.59774141  0.80213579  0.10749965    -0.32100
S1824       S  0.68159214  0.86438788  0.18626639    -0.32100
H1825       H  0.67919137  0.89396862  0.16277035     0.29200
H1826       H  0.59742991  0.77286846  0.13464064     0.29200
H1827       H  0.62697767  0.77883738  0.17421715     0.19800
H1828       H  0.66054833  0.88571454  0.10924177     0.19800
C1829       C  0.64439808  0.80371859  0.46686939    -0.06000
C1830       C  0.61570336  0.80019839  0.47555547    -0.17100
C1831       C  0.59840092  0.81193781  0.50787369     0.11200
C1832       C  0.60965821  0.82981770  0.53027671    -0.05900
C1833       C  0.63836552  0.83534310  0.51880410    -0.17200
C1834       C  0.65567274  0.82154354  0.48922835     0.11200
S1835       S  0.58108492  0.82876880  0.98624274    -0.32100
S1836       S  0.69187039  0.82722358  0.48208741    -0.32100
H1837       H  0.69474976  0.79649976  0.49767131     0.29200
H1838       H  0.57296468  0.82698950  0.03233184     0.29200
H1839       H  0.60659661  0.78668313  0.45874543     0.19800
H1840       H  0.64745117  0.84890592  0.53551392     0.19800
C1841       C  0.90811251  0.95188628  0.49346958    -0.06000
C1842       C  0.88346859  0.94898856  0.03509450    -0.17100
C1843       C  0.85789517  0.93608860  0.03669781     0.11200
C1844       C  0.85961573  0.92249561  0.49088357    -0.05900
C1845       C  0.88483458  0.92084432  0.46092837    -0.17200
C1846       C  0.90881059  0.93614581  0.46072404     0.11200
S1847       S  0.82840111  0.94196605  0.07799186    -0.32100
S1848       S  0.93862392  0.93693910  0.41506701    -0.32100
H1849       H  0.95006643  0.96557126  0.41163118     0.29200
H1850       H  0.81082105  0.91873381  0.07625575     0.29200
H1851       H  0.88479974  0.96181480  0.05869936     0.19800
H1852       H  0.88525974  0.91007387  0.43428520     0.19800
C1853       C  0.80432786  0.86684486  0.03858922    -0.06000
C1854       C  0.77597441  0.85917947  0.04706140    -0.17100
C1855       C  0.76043481  0.84065423  0.08830762     0.11200
C1856       C  0.77283369  0.83056721  0.12395470    -0.05900
C1857       C  0.80090203  0.83845744  0.11610423    -0.17200
C1858       C  0.81694189  0.85493594  0.07370068     0.11200
S1859       S  0.72477091  0.83195229  0.09307211    -0.32100
S1860       S  0.85333391  0.85712733  0.06681722    -0.32100
H1861       H  0.86013523  0.85872845  0.02078853     0.29200
H1862       H  0.71575633  0.83001265  0.13902522     0.29200
H1863       H  0.76540144  0.86832185  0.02164660     0.19800
H1864       H  0.81080874  0.83042542  0.14288368     0.19800
C1865       C  0.79273235  0.86914444  0.44128394    -0.06000
C1866       C  0.77087553  0.87830706  0.42260914    -0.17100
C1867       C  0.75708519  0.85914721  0.40627212     0.11200
C1868       C  0.76401776  0.82935573  0.41135967    -0.05900
C1869       C  0.78455405  0.81946244  0.43262750    -0.17200
C1870       C  0.79979232  0.83937909  0.44572114     0.11200
S1871       S  0.73209526  0.87479542  0.37703073    -0.32100
S1872       S  0.83038691  0.82679768  0.46060103    -0.32100
H1873       H  0.85314322  0.85871966  0.94530174     0.29200
H1874       H  0.71696068  0.84775933  0.38247782     0.29200
H1875       H  0.76533714  0.90114129  0.41864063     0.19800
H1876       H  0.79054500  0.79692258  0.43494484     0.19800
N1877       N  0.82087078  0.88978433  0.48496070    -0.03400
C1878       C  0.83523884  0.91686675  0.47601104    -0.00800
C1879       C  0.82601680  0.93706450  0.95657971    -0.23700
C1880       C  0.81417993  0.92210520  0.93339904    -0.23900
C1881       C  0.81022014  0.89240540  0.95771663    -0.00900
H1882       H  0.83504597  0.96001848  0.94373786     0.12900
H1883       H  0.81040257  0.93161440  0.90086291     0.12900
N1884       N  0.59330294  0.83664021  0.57053622    -0.03400
C1885       C  0.56873842  0.84892504  0.57768651    -0.00800
C1886       C  0.55793481  0.84580648  0.62327518    -0.23700
C1887       C  0.57586728  0.83140026  0.64500672    -0.23900
C1888       C  0.59747000  0.82641050  0.61229508    -0.00900
H1889       H  0.53990993  0.85527244  0.63887848     0.12900
H1890       H  0.57456840  0.82746353  0.68052234     0.12900
N1891       N  0.85946359  0.68558259  0.50352635    -0.03400
C1892       C  0.88483743  0.68001816  0.48134361    -0.00800
C1893       C  0.90457393  0.69274562  0.49620318    -0.23700
C1894       C  0.89123709  0.70272936  0.53189508    -0.23900
C1895       C  0.86362586  0.69725653  0.53675484    -0.00900
H1896       H  0.92623704  0.68963222  0.48825332     0.12900
H1897       H  0.90074259  0.71065125  0.55426007     0.12900
N1898       N  0.52049251  0.51230421  0.99561344    -0.36500
N1899       N  0.97956006  0.97207372  0.99558689    -0.57100
N1900       N  0.94000163  0.51867365  0.99027464    -0.36500
N1901       N  0.98362835  0.55657704  0.99839684    -0.57100
C1902       C  0.52781775  0.97881684  0.00345286     0.27100
C1903       C  0.53587324  0.53220994  0.52781984     0.27100
C1904       C  0.93006054  0.99888530  0.97808791     0.27100
C1905       C  0.93200787  0.54614095  0.97427676     0.27100
C1906       C  0.48867407  0.94667799  0.99958737     0.35700
C1907       C  0.95581387  0.95564671  0.00238215     0.35700
C1908       C  0.00058713  0.56706365  0.52121816     0.35700
C1909       C  0.96459947  0.57657298  0.99625394     0.35700
C1910       C  0.55311841  0.48639344  0.01990238    -0.21800
C1911       C  0.55753931  0.51758028  0.54050659    -0.21800
C1912       C  0.91111632  0.01104884  0.95528705    -0.21800
C1913       C  0.91136328  0.54359350  0.95351414    -0.21800
C1914       C  0.47600096  0.91885486  0.00410252    -0.22800
C1915       C  0.95978206  0.92543023  0.01139228    -0.22800
C1916       C  0.99614437  0.59632932  0.52255479    -0.22800
C1917       C  0.97154420  0.60205298  0.51248162    -0.22800
C1918       C  0.51663175  0.95223262  0.99729189    -0.18200
C1919       C  0.52867643  0.56066165  0.53452333    -0.18200
C1920       C  0.94037141  0.57286444  0.98281459    -0.18200
C1921       C  0.93158133  0.96786845  0.99497142    -0.18200
H1922       H  0.56569055  0.46846816  0.02926915     0.14700
H1923       H  0.57163016  0.52492867  0.55697959     0.14700
H1924       H  0.89578151  0.99913796  0.94611770     0.14700
H1925       H  0.90039143  0.56142365  0.93831377     0.14700
H1926       H  0.48534769  0.89801077  0.00455114     0.13000
H1927       H  0.94479905  0.90682975  0.01757501     0.13000
H1928       H  0.00904848  0.61180958  0.53071929     0.13000
H1929       H  0.96179999  0.62271821  0.51149206     0.13000
H1930       H  0.50516818  0.51835330  0.97956977     0.26300
H1931       H  0.95247655  0.51324308  0.01214368     0.26300
N1932       N  0.61028715  0.61724776  0.63982019    -0.03400
C1933       C  0.58987760  0.59548168  0.64758547    -0.00800
C1934       C  0.58565288  0.57687490  0.69085064    -0.23700
C1935       C  0.60343518  0.58792462  0.71050210    -0.23900
C1936       C  0.61835568  0.61253560  0.67839691    -0.00900
H1937       H  0.57104358  0.55740728  0.70664917     0.12900
H1938       H  0.60494455  0.57933100  0.74471669     0.12900
O1939       O  0.77475473  0.81510935  0.83851314    -0.75200
O1940       O  0.75343113  0.78364455  0.90758112    -0.54100
C1941       C  0.76844495  0.80729240  0.88182898     0.78500
O1942       O  0.67257843  0.79555436  0.74072285    -0.59800
O1943       O  0.69836198  0.77328175  0.69020852    -0.52800
C1944       C  0.67945440  0.78984519  0.70199777     0.70600
O1945       O  0.67018021  0.79770487  0.88360301    -0.74300
O1946       O  0.69401658  0.77482065  0.93306850    -0.54900
C1947       C  0.67587820  0.79241400  0.92204719     0.76600
O1948       O  0.77933550  0.81559575  0.69548839    -0.59500
O1949       O  0.75606839  0.78687159  0.66560839    -0.52600
C1950       C  0.77278595  0.80927735  0.66203151     0.73200
Zr1951     Zr  0.76652902  0.79630191  0.77787553     2.54700
O1952       O  0.76800177  0.85074307  0.75729583    -0.80100
O1953       O  0.81622213  0.79621260  0.75995839    -0.93500
Zr1954     Zr  0.68515207  0.78385924  0.81246921     2.64700
O1955       O  0.68268856  0.83790720  0.79210857    -0.98400
O1956       O  0.63566035  0.77257067  0.83492223    -0.80500
O1957       O  0.72521776  0.79030182  0.83604862    -0.83800
O1958       O  0.72627648  0.79125400  0.75426601    -2.18600
O1959       O  0.79286775  0.70867646  0.73137579    -0.67200
O1960       O  0.76398255  0.72348617  0.68655351    -0.51800
C1961       C  0.78639932  0.71365968  0.69363392     0.71500
O1962       O  0.67364874  0.68035815  0.92462061    -0.60100
O1963       O  0.69680978  0.70804678  0.95622794    -0.52100
C1964       C  0.67875759  0.68730770  0.95855387     0.73300
O1965       O  0.67613466  0.68054425  0.78341165    -0.71500
O1966       O  0.70053478  0.70972480  0.71451314    -0.50200
C1967       C  0.68247875  0.68834938  0.74010164     0.74700
O1968       O  0.78668410  0.69855772  0.87780075    -0.66900
O1969       O  0.76031741  0.72044096  0.92852270    -0.54100
C1970       C  0.78045034  0.70527313  0.91574878     0.73100
Zr1971     Zr  0.77060906  0.70825564  0.80935448     2.77500
O1972       O  0.76378272  0.65399956  0.82465153    -0.97600
O1973       O  0.81970883  0.70401569  0.79687599    -0.78400
Zr1974     Zr  0.69003977  0.69587054  0.84290126     2.70100
O1975       O  0.69648895  0.64261491  0.86145434    -0.79700
O1976       O  0.64032318  0.68728650  0.86208402    -0.98800
Zr1977     Zr  0.72645505  0.74572511  0.89296476     2.21500
Zr1978     Zr  0.72924273  0.74686808  0.72927362     2.11100
O1979       O  0.73108244  0.70144993  0.78439129    -2.47500
O1980       O  0.72967793  0.70105247  0.86849763    -0.79500
O1981       O  0.76973206  0.75261553  0.75249843    -0.71700
O1982       O  0.68622668  0.73961620  0.86900045    -2.32600
O1983       O  0.76824729  0.75238967  0.83466200    -2.28800
O1984       O  0.68764959  0.74002102  0.78695083    -0.73400
H1985       H  0.72550073  0.80865065  0.73043353     0.78600
H1986       H  0.66997129  0.73726423  0.89358510     0.79700
H1987       H  0.73234900  0.68456894  0.77160715     0.81900
H1988       H  0.78392756  0.75528860  0.84574096     0.79500
H1989       H  0.62865066  0.78996135  0.81688898     0.42500
H1990       H  0.63598303  0.66672137  0.88241274     0.41500
H1991       H  0.67783951  0.63251690  0.86903561     0.41200
H1992       H  0.78247241  0.64730664  0.81833777     0.39100
H1993       H  0.82275287  0.68462936  0.78952959     0.42200
H1994       H  0.82145067  0.80176811  0.78500346     0.37000
H1995       H  0.74958811  0.85509025  0.75320485     0.43100
H1996       H  0.66304638  0.84059786  0.80316108     0.39600
H1997       H  0.75666997  0.64679541  0.85781549     0.44500
H1998       H  0.82307349  0.81381102  0.73366265     0.43200
H1999       H  0.69170195  0.84528002  0.81210738     0.43300
H2000       H  0.63348108  0.70050909  0.88168722     0.43700
C2001       C  0.66759986  0.67129665  0.71870055    -0.06000
C2002       C  0.67744065  0.64438650  0.71158649    -0.17100
C2003       C  0.66245970  0.62511772  0.69675026     0.11200
C2004       C  0.63720301  0.63327107  0.68790368    -0.05900
C2005       C  0.62775294  0.66058361  0.69383282    -0.17200
C2006       C  0.64234274  0.67942439  0.70987389     0.11200
S2007       S  0.67664963  0.59035911  0.69121236    -0.32100
S2008       S  0.62625252  0.71198533  0.72170877    -0.32100
H2009       H  0.64891679  0.72723159  0.72684598     0.29200
H2010       H  0.65846376  0.58040909  0.67007059     0.29200
H2011       H  0.69656189  0.63785572  0.71911025     0.19800
H2012       H  0.60808162  0.66654604  0.68813966     0.19800
C2013       C  0.62510545  0.63682235  0.59701821    -0.06000
C2014       C  0.65287962  0.63307482  0.58039999    -0.17100
C2015       C  0.66769942  0.64878353  0.53703921     0.11200
C2016       C  0.66158363  0.67060999  0.00310307    -0.05900
C2017       C  0.63355707  0.67482080  0.01341407    -0.17200
C2018       C  0.61223823  0.65788819  0.56996629     0.11200
S2019       S  0.70332755  0.64229251  0.51914004    -0.32100
S2020       S  0.57769980  0.66690218  0.58999745    -0.32100
H2021       H  0.57673963  0.65763664  0.63603429     0.29200
H2022       H  0.71324005  0.64886926  0.97783448     0.29200
H2023       H  0.66287770  0.61699625  0.60091071     0.19800
H2024       H  0.62562564  0.69112849  0.98962108     0.19800
C2025       C  0.54431059  0.57445659  0.55975953    -0.06000
C2026       C  0.53087344  0.57516707  0.60360704    -0.17100
C2027       C  0.54489243  0.58466508  0.63096785     0.11200
C2028       C  0.57367404  0.59149983  0.61585638    -0.05900
C2029       C  0.58698731  0.59197026  0.57118447    -0.17200
C2030       C  0.57237067  0.58466177  0.54249972     0.11200
S2031       S  0.52454488  0.58802588  0.68452366    -0.32100
S2032       S  0.58969817  0.58738779  0.48450166    -0.32100
H2033       H  0.61499627  0.60026219  0.48492030     0.29200
H2034       H  0.54131316  0.61208878  0.68602519     0.29200
H2035       H  0.50916163  0.56818416  0.61668410     0.19800
H2036       H  0.60893527  0.59700512  0.55910178     0.19800
C2037       C  0.89118407  0.65042578  0.47316072    -0.06000
C2038       C  0.87998096  0.62509040  0.50916179    -0.17100
C2039       C  0.89417535  0.59947496  0.51705017     0.11200
C2040       C  0.91971042  0.59824913  0.48701318    -0.05900
C2041       C  0.93003312  0.62552456  0.95214785    -0.17200
C2042       C  0.91520785  0.65020949  0.95720308     0.11200
S2043       S  0.87956862  0.57023239  0.56810113    -0.32100
S2044       S  0.93036402  0.68690251  0.92315001    -0.32100
H2045       H  0.90589193  0.70105403  0.92975909     0.29200
H2046       H  0.90462078  0.56172909  0.57670715     0.29200
H2047       H  0.86181139  0.62655726  0.53467652     0.19800
H2048       H  0.94960369  0.62898233  0.92718225     0.19800
C2049       C  0.80650752  0.70919495  0.65463594    -0.06000
C2050       C  0.80137479  0.68513112  0.63797129    -0.17100
C2051       C  0.81937636  0.68053157  0.59944654     0.11200
C2052       C  0.84243905  0.70136090  0.57599187    -0.05900
C2053       C  0.84729031  0.72552970  0.59308707    -0.17200
C2054       C  0.82978321  0.72954775  0.63213472     0.11200
S2055       S  0.81374857  0.64650151  0.58412823    -0.32100
S2056       S  0.83856730  0.76088501  0.65150770    -0.32100
H2057       H  0.81171980  0.76598002  0.67151405     0.29200
H2058       H  0.78663448  0.63872361  0.61086672     0.29200
H2059       H  0.78354789  0.66948998  0.65603921     0.19800
H2060       H  0.86494815  0.74157298  0.57580479     0.19800
C2061       C  0.79926717  0.69721080  0.94505645    -0.06000
C2062       C  0.81274266  0.72080889  0.95380274    -0.17100
C2063       C  0.82467028  0.71858573  0.47632090     0.11200
C2064       C  0.83627125  0.69058869  0.48359276    -0.05900
C2065       C  0.82628474  0.66250442  0.98483618    -0.17200
C2066       C  0.80640397  0.66768334  0.96034566     0.11200
S2067       S  0.83962938  0.75165882  0.48418453    -0.32100
S2068       S  0.79040784  0.63564892  0.95097028    -0.32100
H2069       H  0.76574843  0.64807577  0.94703104     0.29200
H2070       H  0.86674490  0.74616292  0.46589199     0.29200
H2071       H  0.80828445  0.74362622  0.94058609     0.19800
H2072       H  0.83091356  0.63977314  0.99780563     0.19800
C2073       C  0.53480073  0.92733786  0.99508804    -0.06000
C2074       C  0.51602421  0.89548592  0.53899355    -0.17100
C2075       C  0.52811079  0.86918934  0.55341870     0.11200
C2076       C  0.55691808  0.86974212  0.54464166    -0.05900
C2077       C  0.57896604  0.91173191  0.96179477    -0.17200
C2078       C  0.55715092  0.92943975  0.95730621     0.11200
S2079       S  0.50643073  0.83536417  0.58629379    -0.32100
S2080       S  0.56051171  0.95707803  0.90441560    -0.32100
H2081       H  0.53722040  0.46545295  0.90553574     0.28900
H2082       H  0.48111763  0.84725456  0.58572495     0.29200
H2083       H  0.49403411  0.89560455  0.55042210     0.19800
H2084       H  0.59744458  0.91613535  0.93431632     0.19800
C2085       C  0.66364453  0.80228384  0.66945932    -0.06000
C2086       C  0.65512796  0.78370017  0.64572666    -0.17100
C2087       C  0.63470957  0.79174389  0.62318419     0.11200
C2088       C  0.62379549  0.81949658  0.62277422    -0.05900
C2089       C  0.63512091  0.83962963  0.64114966    -0.17200
C2090       C  0.65476083  0.83127801  0.66481902     0.11200
S2091       S  0.62101302  0.76547248  0.59913205    -0.32100
S2092       S  0.66779182  0.85757396  0.68966036    -0.32100
H2093       H  0.65515059  0.88244869  0.67028273     0.29200
H2094       H  0.63895029  0.74324943  0.60808155     0.29200
H2095       H  0.66283655  0.76188920  0.64795548     0.19800
H2096       H  0.62699473  0.86122084  0.63970387     0.19800
C2097       C  0.66012900  0.80815533  0.95503062    -0.06000
C2098       C  0.63264024  0.81303407  0.95575194    -0.17100
C2099       C  0.61693433  0.82908552  0.98373257     0.11200
C2100       C  0.62919963  0.84300970  0.00995271    -0.05900
C2101       C  0.65664543  0.83753542  0.00962515    -0.17200
C2102       C  0.67168234  0.81973036  0.98420987     0.11200
S2103       S  0.56236520  0.80074823  0.52188973    -0.32100
S2104       S  0.70567569  0.81354643  0.99044601    -0.32100
H2105       H  0.71750065  0.81814605  0.94443826     0.29200
H2106       H  0.55912893  0.79295556  0.56871356     0.29200
H2107       H  0.62293725  0.80345762  0.93506381     0.19800
H2108       H  0.66710519  0.84785665  0.02851776     0.19800
C2109       C  0.90692414  0.94783512  0.00102615    -0.06000
C2110       C  0.88328288  0.95178129  0.52553529    -0.17100
C2111       C  0.85891679  0.93781582  0.52400970     0.11200
C2112       C  0.85588786  0.92085051  0.00449346    -0.05900
C2113       C  0.87980813  0.91738514  0.97301538    -0.17200
C2114       C  0.90506683  0.93147149  0.96995847     0.11200
S2115       S  0.82757329  0.94291271  0.56228918    -0.32100
S2116       S  0.93318955  0.93046891  0.92273444    -0.32100
H2117       H  0.94437280  0.96001649  0.91437304     0.29200
H2118       H  0.81065988  0.92106576  0.55578239     0.29200
H2119       H  0.88264399  0.96420470  0.55031447     0.19800
H2120       H  0.87821622  0.90633584  0.94745258     0.19800
C2121       C  0.80985437  0.86881794  0.52925525    -0.06000
C2122       C  0.78118202  0.86368963  0.54629061    -0.17100
C2123       C  0.76874840  0.84428680  0.58871528     0.11200
C2124       C  0.78504495  0.82973631  0.61638910    -0.05900
C2125       C  0.81366089  0.83514716  0.60021622    -0.17200
C2126       C  0.82625901  0.85359598  0.55676228     0.11200
S2127       S  0.73186802  0.84005896  0.60614901    -0.32100
S2128       S  0.86297181  0.85436847  0.53844866    -0.32100
H2129       H  0.86465793  0.86131568  0.49233346     0.29200
H2130       H  0.72978103  0.83901765  0.65138639     0.29200
H2131       H  0.76816660  0.87541373  0.52647875     0.19800
H2132       H  0.82638774  0.82408296  0.62111896     0.19800
C2133       C  0.79874526  0.86877118  0.94186433    -0.06000
C2134       C  0.77782267  0.87608768  0.92017632    -0.17100
C2135       C  0.76780039  0.85652190  0.90001424     0.11200
C2136       C  0.77791963  0.82811751  0.90346533    -0.05900
C2137       C  0.79811388  0.82010678  0.92635764    -0.17200
C2138       C  0.80931817  0.84051521  0.94423996     0.11200
S2139       S  0.74271867  0.86992835  0.86945162    -0.32100
S2140       S  0.83871573  0.83025847  0.96504249    -0.32100
H2141       H  0.84686259  0.85284672  0.43291910     0.29200
H2142       H  0.73183966  0.84242465  0.86734458     0.29200
H2143       H  0.76952925  0.89764724  0.91799764     0.19800
H2144       H  0.80630942  0.79853617  0.92794878     0.19800
loop_ 
_geom_bond_atom_site_label_1 
_geom_bond_atom_site_label_2 
_geom_bond_distance 
_geom_bond_site_symmetry_2 
_ccdc_geom_bond_type 
N1            C2   1.366       .  A
N1          C273   1.367       .  A
N1          C245   1.463   1_556  S
C2          C271   1.383       .  A
C2          C504   1.472       .  S
C3            C4   1.358       .  A
C3          C270   1.383       .  A
C3            H6   1.083       .  S
C4            C5   1.379       .  A
C4            H7   1.082       .  S
C5          N269   1.364       .  A
C5          C257   1.477       .  S
N8           C12   1.369       .  A
N8            C9   1.369       .  A
N8          C492   1.465       .  S
C9           C10   1.382       .  A
C9          C200   1.478       .  S
C10          C11   1.354       .  A
C10          H13   1.083       .  S
C11          C12   1.381       .  A
C11          H14   1.082       .  S
C12         C212   1.490       .  S
N15          C19   1.360       .  A
N15          C16   1.363   1_554  A
N15         C188   1.452   1_554  S
C16          C17   1.385   1_556  A
C16         C161   1.476       .  S
C17          C18   1.364       .  A
C17          H20   1.083       .  S
C18          C19   1.379       .  A
C18          H21   1.082       .  S
C19         C176   1.481       .  S
N22         C295   1.359       .  A
N22         C562   1.356   1_545  A
N22          H54   1.036       .  S
N23          C31   1.347       .  A
N23        C1102   1.347       .  A
N24          C29   1.354       .  A
N24         C564   1.351       .  A
N24          H55   1.036       .  S
N25          C33   1.355       .  A
N25         C300   1.353       .  A
C26         N558   1.355       .  A
C26          C42   1.417       .  A
C26         C570   1.384       .  A
C27         N290   1.361   1_554  A
C27          C43   1.429       .  A
C27          C35   1.390       .  A
C28         N560   1.350       .  A
C28          C36   1.386       .  A
C28          C45   1.410       .  A
C29          C44   1.418       .  A
C29          C37   1.389       .  A
C30        N1095   1.350       .  A
C30          C42   1.408   1_655  A
C30          C38   1.385       .  A
C31          C45   1.407       .  A
C31          C39   1.386       .  A
C32         N293   1.351   1_554  A
C32          C40   1.389       .  A
C32        C1115   1.422       .  A
C33          C44   1.425       .  A
C33         C309   1.387       .  A
C34         C562   1.386       .  A
C34         C303   1.371   1_565  A
C34          H46   1.083       .  S
C35         C302   1.369   1_545  A
C35          H47   1.080       .  S
C36         C573   1.371       .  A
C36          H48   1.082       .  S
C37         C572   1.371       .  A
C37          H49   1.082       .  S
C38        C1111   1.370       .  A
C38          H50   1.082       .  S
C39        C1110   1.370       .  A
C39          H51   1.082       .  S
C40          C41   1.374       .  A
C40          H52   1.082       .  S
C41         C301   1.386   1_554  A
C41          H53   1.082       .  S
C42         C197   1.489       .  S
C43        C1104   1.426   1_554  A
C43         C149   1.507       .  S
C44         C432   1.498       .  S
C45         C233   1.478       .  S
N56          C60   1.364       .  A
N56          C57   1.366       .  A
N56         C137   1.442       .  S
C57          C58   1.385       .  A
C57         C152   1.501       .  S
C58          C59   1.371       .  A
C58          H61   1.082       .  S
C59          C60   1.382       .  A
C59          H62   1.082       .  S
C60         C128   1.497       .  S
O63         Zr75   2.423       .  S
O63          C65   1.285       .  A
O64        Zr101   2.416       .  S
O64          C65   1.285       .  A
C65         C260   1.459       .  S
O66         Zr78   2.422       .  S
O66          C68   1.283       .  A
O67        Zr102   2.420       .  S
O67          C68   1.285       .  A
C68         C209   1.458       .  S
O69         Zr78   2.445       .  S
O69          C71   1.288       .  A
O70        Zr101   2.464       .  S
O70          C71   1.293       .  A
C71         C221   1.502       .  S
O72         Zr75   2.452       .  S
O72          C74   1.290       .  A
O73        Zr102   2.432       .  S
O73          C74   1.287       .  A
C74         C248   1.490       .  S
Zr75         O76   2.434       .  S
Zr75         O77   2.436       .  S
Zr75         O81   2.376       .  S
Zr75         O82   2.358       .  S
Zr75        O105   2.360       .  S
Zr75        O107   2.373       .  S
O76         H119   0.990       .  S
O77         H118   0.990       .  S
O77         H122   0.990       .  S
Zr78         O79   2.437       .  S
Zr78         O80   2.435       .  S
Zr78         O82   2.379       .  S
Zr78         O81   2.370       .  S
Zr78        O106   2.356       .  S
Zr78        O108   2.374       .  S
O79         H120   0.991       .  S
O79         H123   0.990       .  S
O80         H113   0.990       .  S
O81        Zr101   2.385       .  S
O82        Zr102   2.382       .  S
O82         H109   0.964       .  S
O83         Zr95   2.451       .  S
O83          C85   1.290       .  A
O84        Zr102   2.404       .  S
O84          C85   1.281       .  A
C85         C173   1.463       .  S
O86         Zr98   2.437       .  S
O86          C88   1.287       .  A
O87        Zr101   2.426       .  S
O87          C88   1.287       .  A
C88         C140   1.463       .  S
O89         Zr98   2.465       .  S
O89          C91   1.292       .  A
O90        Zr102   2.426       .  S
O90          C91   1.286       .  A
C91         C125   1.491       .  S
O92         Zr95   2.458       .  S
O92          C94   1.290       .  A
O93        Zr101   2.455       .  S
O93          C94   1.293       .  A
C94         C185   1.495       .  S
Zr95         O96   2.434       .  S
Zr95         O97   2.435       .  S
Zr95        O103   2.374       .  S
Zr95        O104   2.374       .  S
Zr95        O107   2.373       .  S
Zr95        O105   2.374       .  S
O96         H116   0.990       .  S
O96         H121   0.990       .  S
O97         H117   0.990       .  S
Zr98         O99   2.434       .  S
Zr98        O100   2.436       .  S
Zr98        O104   2.388       .  S
Zr98        O103   2.372       .  S
Zr98        O108   2.370       .  S
Zr98        O106   2.383       .  S
O99         H115   0.990       .  S
O100        H114   0.990       .  S
O100        H124   0.990       .  S
Zr101       O104   2.392       .  S
Zr101       O106   2.390       .  S
Zr101       O107   2.390       .  S
Zr102       O103   2.388       .  S
Zr102       O105   2.381       .  S
Zr102       O108   2.381       .  S
O103        H111   0.966       .  S
O106        H110   0.966       .  S
O107        H112   0.966       .  S
C125        C126   1.403       .  A
C125        C130   1.418       .  A
C126        C127   1.402       .  A
C126        H135   1.084       .  S
C127        C128   1.418       .  A
C127        S131   1.804       .  S
C128        C129   1.405       .  A
C129        C130   1.404       .  A
C129        H136   1.082       .  S
C130        S132   1.799       .  S
S131        H134   1.407       .  S
S132        H133   1.406       .  S
C137        C138   1.404       .  A
C137        C142   1.410       .  A
C138        C139   1.402       .  A
C138        H147   1.083       .  S
C139        C408   1.413   1_554  A
C139        S143   1.805       .  S
C140        C141   1.403       .  A
C140        C407   1.407       .  A
C141        C410   1.399       .  A
C141        H148   1.084       .  S
C142        C409   1.403       .  A
C142        S144   1.802       .  S
S143        H414   1.402   1_554  S
S144        H145   1.406       .  S
H146        S411   1.406       .  S
C149        C150   1.400       .  A
C149        C154   1.417       .  A
C150        C151   1.395       .  A
C150        H159   1.084       .  S
C151        C152   1.419       .  A
C151        S155   1.805       .  S
C152        C153   1.409       .  A
C153        C154   1.415       .  A
C153        H160   1.081       .  S
C154        S156   1.805   1_554  S
S155        H158   1.406       .  S
S156        H157   1.407       .  S
C161        C162   1.403   1_556  A
C161        C434   1.413       .  A
C162        C163   1.396       .  A
C162        H171   1.081       .  S
C163        C164   1.414   1_554  A
C163        S167   1.805       .  S
C164        C433   1.404       .  A
C164        C312   1.492       .  S
C165        C166   1.403       .  A
C165        C432   1.404       .  A
C165        H172   1.084       .  S
C166        C429   1.414       .  A
C166        S168   1.803       .  S
S167        H170   1.406       .  S
S168        H169   1.407       .  S
C173        C174   1.400       .  A
C173        C178   1.405       .  A
C174        C175   1.400       .  A
C174        H183   1.084       .  S
C175        C176   1.416       .  A
C175        S179   1.798       .  S
C176        C177   1.404       .  A
C177        C178   1.396       .  A
C177        H184   1.083       .  S
C178        S180   1.807       .  S
S179        H182   1.404       .  S
S180        H181   1.407       .  S
C185        C186   1.402       .  A
C185        C190   1.418       .  A
C186        C455   1.403       .  A
C186        H195   1.082       .  S
C187        C188   1.418       .  A
C187        C454   1.399       .  A
C187        S191   1.802       .  S
C188        C457   1.407       .  A
C189        C190   1.412       .  A
C189        C456   1.407       .  A
C189        H196   1.081       .  S
C190        S192   1.803       .  S
S191        H194   1.406       .  S
S192        H193   1.406       .  S
C197        C202   1.411       .  A
C197        C466   1.399       .  A
C198        C199   1.399       .  A
C198        C465   1.399   1_554  A
C198        H207   1.083       .  S
C199        C200   1.419       .  A
C199        S203   1.807       .  S
C200        C469   1.403   1_554  A
C201        C202   1.400       .  A
C201        C468   1.403       .  A
C201        H208   1.084       .  S
C202        S204   1.802       .  S
S203        H206   1.407       .  S
S204        H741   1.406       .  S
H205        S740   1.406       .  S
C209        C210   1.397       .  A
C209        C214   1.403       .  A
C210        C211   1.403       .  A
C210        H219   1.079       .  S
C211        C212   1.417       .  A
C211        S215   1.804       .  S
C212        C213   1.408       .  A
C213        C214   1.390       .  A
C213        H220   1.081       .  S
C214        S216   1.812       .  S
S215        H218   1.407       .  S
S216        H217   1.406       .  S
C221        C222   1.409       .  A
C221        C226   1.414       .  A
C222        C223   1.409       .  A
C222        H231   1.084       .  S
C223        C224   1.422       .  A
C223        S495   1.795       .  S
C224        N276   1.468       .  S
C224        C225   1.413       .  A
C225        C226   1.401       .  A
C225        H232   1.081       .  S
C226        S228   1.796       .  S
S227        C491   1.795       .  S
S227        H230   1.399   1_556  S
S228        H229   1.392       .  S
C233        C238   1.409       .  A
C233        C502   1.405       .  A
C234        C235   1.400       .  A
C234        C501   1.407   1_554  A
C234        H243   1.084       .  S
C235        C504   1.408   1_554  A
C235        S239   1.804       .  S
C236        C237   1.407       .  A
C236        C503   1.409       .  A
C236        C270   1.467       .  S
C237        C238   1.390       .  A
C237        H244   1.085       .  S
C238        S240   1.807       .  S
S239        H242   1.404       .  S
S240        H241   1.406       .  S
C245        C246   1.411       .  A
C245        C250   1.423       .  A
C246        C247   1.399       .  A
C246        H255   1.081       .  S
C247        C248   1.414       .  A
C247        S251   1.801       .  S
C248        C249   1.404       .  A
C249        C250   1.405       .  A
C249        H256   1.084       .  S
C250        S252   1.798       .  S
S251        H254   1.397       .  S
S252        H253   1.400   1_554  S
C257        C258   1.403       .  A
C257        C262   1.412       .  A
C258        C259   1.390       .  A
C258        H267   1.084       .  S
C259        C260   1.411       .  A
C259        S263   1.811       .  S
C260        C261   1.400       .  A
C261        C262   1.397       .  A
C261        H268   1.082       .  S
C262        S264   1.797       .  S
S263        H266   1.402       .  S
S264        H533   1.406       .  S
H265        S532   1.407       .  S
N269        C270   1.365       .  A
N269        C513   1.460       .  S
C271        C272   1.361       .  A
C271        H274   1.083       .  S
C272        C273   1.380       .  A
C272        H275   1.082       .  S
C273        C525   1.489       .  S
N276        C280   1.371       .  A
N276        C277   1.371       .  A
C277        C278   1.383       .  A
C277        C468   1.479       .  S
C278        C279   1.354       .  A
C278        H281   1.084       .  S
C279        C280   1.382       .  A
C279        H282   1.082       .  S
C280        C480   1.495       .  S
N283        C287   1.364       .  A
N283        C284   1.366       .  A
N283        C456   1.458       .  S
C284        C285   1.385       .  A
C284        C429   1.478       .  S
C285        C286   1.362       .  A
C285        H288   1.083       .  S
C286        C287   1.379       .  A
C286        H289   1.082       .  S
C287        C444   1.482       .  S
N290        C830   1.357   1_546  A
N290        H322   1.037       .  S
N291       C1370   1.349       .  A
N291        C299   1.350       .  A
N292        C297   1.355       .  A
N292        C832   1.352   1_545  A
N292        H323   1.040   1_556  S
N293        C301   1.351       .  A
C294        N826   1.356       .  A
C294        C838   1.386       .  A
C294        C310   1.424   1_554  A
C295        C311   1.427       .  A
C295        C303   1.390       .  A
C296        N828   1.352       .  A
C296        C304   1.387       .  A
C296        C313   1.413       .  A
C297        C312   1.415       .  A
C297        C305   1.387       .  A
C298       N1363   1.348       .  A
C298        C310   1.412   1_655  A
C298        C306   1.387   1_556  A
C299        C313   1.411       .  A
C299        C307   1.386       .  A
C300        C308   1.387       .  A
C300       C1383   1.423       .  A
C301        C312   1.417       .  A
C302        C830   1.385       .  A
C302        H314   1.083       .  S
C303        H315   1.081       .  S
C304        C841   1.372       .  A
C304        H316   1.083       .  S
C305        C840   1.370       .  A
C305        H317   1.082       .  S
C306       C1379   1.373       .  A
C306        H318   1.082       .  S
C307       C1378   1.374       .  A
C307        H319   1.082       .  S
C308        C309   1.375       .  A
C308        H320   1.082       .  S
C309        H321   1.082       .  S
C310        C465   1.489       .  S
C311       C1372   1.422       .  A
C311        C417   1.498       .  S
C313        C501   1.485       .  S
N324        C328   1.361       .  A
N324        C325   1.364       .  A
N324        C405   1.439       .  S
C325        C326   1.385       .  A
C325        C420   1.499       .  S
C326        C327   1.371       .  A
C326        H329   1.081       .  S
C327        C328   1.381       .  A
C327        H330   1.082       .  S
C328        C396   1.493       .  S
O331       Zr343   2.419       .  S
O331        C333   1.284       .  A
O332       Zr369   2.421       .  S
O332        C333   1.286       .  A
C333        C528   1.459       .  S
O334       Zr346   2.423       .  S
O334        C336   1.284       .  A
O335       Zr370   2.431       .  S
O335        C336   1.287       .  A
C336        C477   1.462       .  S
O337       Zr346   2.452       .  S
O337        C339   1.290       .  A
O338       Zr369   2.452       .  S
O338        C339   1.291       .  A
C339        C489   1.499       .  S
O340       Zr343   2.456       .  S
O340        C342   1.290       .  A
O341       Zr370   2.446       .  S
O341        C342   1.290       .  A
C342        C516   1.494       .  S
Zr343       O344   2.435       .  S
Zr343       O345   2.435       .  S
Zr343       O349   2.379       .  S
Zr343       O350   2.360       .  S
Zr343       O373   2.357       .  S
Zr343       O375   2.376       .  S
O344        H387   0.990       .  S
O345        H386   0.990       .  S
O345        H390   0.990       .  S
Zr346       O347   2.436       .  S
Zr346       O348   2.434       .  S
Zr346       O350   2.378       .  S
Zr346       O349   2.361       .  S
Zr346       O374   2.361       .  S
Zr346       O376   2.380       .  S
O347        H388   0.990       .  S
O347        H391   0.990       .  S
O348        H381   0.990       .  S
O349       Zr369   2.382       .  S
O350       Zr370   2.378       .  S
O350        H377   0.964       .  S
O351       Zr363   2.446       .  S
O351        C353   1.289       .  A
O352       Zr370   2.409       .  S
O352        C353   1.283       .  A
C353        C441   1.463       .  S
O354       Zr366   2.448       .  S
O354        C356   1.288       .  A
O355       Zr369   2.442       .  S
O355        C356   1.290       .  A
C356        C408   1.477       .  S
O357       Zr366   2.454       .  S
O357        C359   1.291       .  A
O358       Zr370   2.426       .  S
O358        C359   1.287       .  A
C359        C393   1.484       .  S
O360       Zr363   2.453       .  S
O360        C362   1.289       .  A
O361       Zr369   2.443       .  S
O361        C362   1.291       .  A
C362        C453   1.486       .  S
Zr363       O364   2.434       .  S
Zr363       O365   2.434       .  S
Zr363       O371   2.368       .  S
Zr363       O372   2.374       .  S
Zr363       O375   2.377       .  S
Zr363       O373   2.376       .  S
O364        H384   0.990       .  S
O364        H389   0.990       .  S
O365        H385   0.990       .  S
Zr366       O367   2.435       .  S
Zr366       O368   2.436       .  S
Zr366       O372   2.380       .  S
Zr366       O371   2.372       .  S
Zr366       O376   2.381       .  S
Zr366       O374   2.378       .  S
O367        H383   0.990       .  S
O368        H382   0.990       .  S
O368        H392   0.990       .  S
Zr369       O372   2.389       .  S
Zr369       O374   2.385       .  S
Zr369       O375   2.398       .  S
Zr370       O371   2.393       .  S
Zr370       O373   2.382       .  S
Zr370       O376   2.387       .  S
O371        H379   0.966       .  S
O374        H378   0.966       .  S
O375        H380   0.966       .  S
C393        C394   1.403       .  A
C393        C398   1.415       .  A
C394        C395   1.399       .  A
C394        H403   1.084       .  S
C395        C396   1.415       .  A
C395        S399   1.804       .  S
C396        C397   1.405       .  A
C397        C398   1.403       .  A
C397        H404   1.082       .  S
C398        S400   1.800       .  S
S399        H402   1.408       .  S
S400        H401   1.406       .  S
C405        C406   1.404       .  A
C405        C410   1.412       .  A
C406        C407   1.396       .  A
C406        H415   1.083       .  S
C407        S411   1.805       .  S
C408        C409   1.406   1_556  A
C409        H416   1.084   1_554  S
C410        S412   1.802       .  S
S412        H413   1.405       .  S
C417        C418   1.399       .  A
C417        C422   1.412       .  A
C418        C419   1.395       .  A
C418        H427   1.084       .  S
C419        C420   1.420       .  A
C419        S423   1.805       .  S
C420        C421   1.409       .  A
C421        C422   1.410       .  A
C421        H428   1.080       .  S
C422        S424   1.805       .  S
S423        H426   1.407       .  S
S424        H425   1.407       .  S
C429        C430   1.402       .  A
C430        C431   1.398       .  A
C430        H439   1.083       .  S
C431        C432   1.417       .  A
C431        S435   1.806       .  S
C433        C434   1.401       .  A
C433        H440   1.084       .  S
C434        S436   1.803       .  S
S435        H438   1.406       .  S
S436        H437   1.407       .  S
C441        C442   1.402       .  A
C441        C446   1.409       .  A
C442        C443   1.401       .  A
C442        H451   1.084       .  S
C443        C444   1.415       .  A
C443        S447   1.800       .  S
C444        C445   1.405       .  A
C445        C446   1.392       .  A
C445        H452   1.084       .  S
C446        S448   1.806       .  S
S447        H450   1.406       .  S
S448        H449   1.402       .  S
C453        C454   1.401       .  A
C453        C458   1.417       .  A
C454        H463   1.084       .  S
C455        C456   1.419       .  A
C455        S459   1.800       .  S
C457        C458   1.410       .  A
C457        H464   1.081       .  S
C458        S460   1.803       .  S
S459        H462   1.406       .  S
S460        H461   1.406       .  S
C465        C470   1.412       .  A
C466        C467   1.400       .  A
C466        H475   1.083       .  S
C467        C468   1.420       .  A
C467        S471   1.808       .  S
C469        C470   1.401       .  A
C469        H476   1.084       .  S
C470        S472   1.802       .  S
S471        H474   1.407       .  S
S472       H1009   1.407       .  S
H473       S1008   1.406       .  S
C477        C478   1.397       .  A
C477        C482   1.405       .  A
C478        C479   1.402       .  A
C478        H487   1.080       .  S
C479        C480   1.418       .  A
C479        S483   1.801       .  S
C480        C481   1.410       .  A
C481        C482   1.393       .  A
C481        H488   1.080       .  S
C482        S484   1.811       .  S
S483        H486   1.408       .  S
S484        H485   1.407       .  S
C489        C490   1.407       .  A
C489        C494   1.415       .  A
C490        C491   1.407       .  A
C490        H499   1.084       .  S
C491        C492   1.420   1_556  A
C492        C493   1.412       .  A
C493        C494   1.401   1_554  A
C493        H500   1.081       .  S
C494        S496   1.797       .  S
S495        H498   1.401       .  S
S496        H497   1.393       .  S
C501        C506   1.411       .  A
C502        C503   1.399       .  A
C502        H511   1.084       .  S
C503        S507   1.805       .  S
C504        C505   1.407       .  A
C505        C506   1.395       .  A
C505        H512   1.084       .  S
C506        S508   1.806       .  S
S507        H510   1.400       .  S
S508        H509   1.404       .  S
C513        C514   1.408       .  A
C513        C518   1.421       .  A
C514        C515   1.399       .  A
C514        H523   1.082       .  S
C515        C516   1.413       .  A
C515        S519   1.801       .  S
C516        C517   1.408       .  A
C517        C518   1.410       .  A
C517        H524   1.083       .  S
C518        S520   1.801       .  S
S519        H522   1.399       .  S
S520        H521   1.402       .  S
C525        C526   1.408       .  A
C525        C530   1.416       .  A
C526        C527   1.394       .  A
C526        H535   1.083       .  S
C527        C528   1.411       .  A
C527        S531   1.812       .  S
C528        C529   1.397       .  A
C529        C530   1.396       .  A
C529        H536   1.084       .  S
C530        S532   1.796       .  S
S531        H534   1.403       .  S
N537        C809   1.364       .  A
N537        C538   1.366       .  A
N537        C781   1.461   1_556  S
C538        C807   1.384       .  A
C538       C1040   1.471   1_556  S
C539        C806   1.385       .  A
C539        C540   1.361       .  A
C539        H542   1.083       .  S
C540        C541   1.378       .  A
C540        H543   1.082       .  S
C541        N805   1.366       .  A
C541        C793   1.486       .  S
N544        C548   1.367       .  A
N544        C545   1.368       .  A
N544       C1028   1.466       .  S
C545        C546   1.382       .  A
C545        C736   1.475       .  S
C546        C547   1.355       .  A
C546        H549   1.084       .  S
C547        C548   1.382       .  A
C547        H550   1.082       .  S
C548        C748   1.488       .  S
N551        C555   1.362       .  A
N551        C552   1.365   1_554  A
N551        C724   1.455   1_554  S
C552        C553   1.385   1_556  A
C552        C697   1.479       .  S
C553        C554   1.364       .  A
C553        H556   1.083       .  S
C554        C555   1.379       .  A
C554        H557   1.083       .  S
C555        C712   1.483       .  S
N558        C831   1.359       .  A
N558        H590   1.038   1_455  S
N559       C1638   1.352       .  A
N559        C567   1.353       .  A
N560        C565   1.353       .  A
N560        H591   1.041       .  S
N561        C836   1.350       .  A
N561        C569   1.352       .  A
C562        C578   1.422       .  A
C563        N826   1.360       .  A
C563        C579   1.427       .  A
C563        C571   1.388       .  A
C564        C572   1.385       .  A
C564        C581   1.412   1_545  A
C565        C580   1.411       .  A
C565        C573   1.387       .  A
C566       N1631   1.347       .  A
C566        C578   1.411   1_655  A
C566        C574   1.388       .  A
C567        C581   1.414       .  A
C567        C575   1.383       .  A
C568        N829   1.353   1_554  A
C568        C576   1.389       .  A
C568       C1651   1.426       .  A
C569        C845   1.385       .  A
C569        C580   1.417       .  A
C570        C839   1.371       .  A
C570        H582   1.082       .  S
C571        C838   1.373       .  A
C571        H583   1.081       .  S
C572        H584   1.083       .  S
C573        H585   1.082       .  S
C574       C1647   1.370       .  A
C574        H586   1.082       .  S
C575       C1646   1.371       .  A
C575        H587   1.080       .  S
C576        C577   1.373   1_554  A
C576        H588   1.082       .  S
C577        C837   1.385       .  A
C577        H589   1.082       .  S
C578        C733   1.486       .  S
C579       C1640   1.420       .  A
C579        C685   1.501       .  S
C580        C968   1.491       .  S
C581        C769   1.491       .  S
N592        C596   1.363       .  A
N592        C593   1.367       .  A
N592        C673   1.445       .  S
C593        C594   1.385       .  A
C593        C688   1.499       .  S
C594        C595   1.369       .  A
C594        H597   1.082       .  S
C595        C596   1.381       .  A
C595        H598   1.082       .  S
C596        C664   1.493       .  S
O599       Zr611   2.419       .  S
O599        C601   1.283       .  A
O600       Zr637   2.429       .  S
O600        C601   1.287       .  A
C601        C796   1.462       .  S
O602       Zr614   2.424       .  S
O602        C604   1.283       .  A
O603       Zr638   2.415       .  S
O603        C604   1.284       .  A
C604        C745   1.454       .  S
O605       Zr614   2.446       .  S
O605        C607   1.289       .  A
O606       Zr637   2.452       .  S
O606        C607   1.291       .  A
C607        C757   1.504       .  S
O608       Zr611   2.450       .  S
O608        C610   1.289       .  A
O609       Zr638   2.443       .  S
O609        C610   1.289       .  A
C610        C784   1.494       .  S
Zr611       O612   2.434       .  S
Zr611       O613   2.436       .  S
Zr611       O617   2.374       .  S
Zr611       O618   2.353       .  S
Zr611       O641   2.357       .  S
Zr611       O643   2.371       .  S
O612        H655   0.990       .  S
O613        H654   0.990       .  S
O613        H658   0.990       .  S
Zr614       O615   2.439       .  S
Zr614       O616   2.434       .  S
Zr614       O618   2.380       .  S
Zr614       O617   2.365       .  S
Zr614       O642   2.354       .  S
Zr614       O644   2.375       .  S
O615        H656   0.990       .  S
O615        H659   0.990       .  S
O616        H649   0.990       .  S
O617       Zr637   2.378       .  S
O618       Zr638   2.381       .  S
O618        H645   0.965       .  S
O619       Zr631   2.455       .  S
O619        C621   1.291       .  A
O620       Zr638   2.411       .  S
O620        C621   1.283       .  A
C621        C709   1.467       .  S
O622       Zr634   2.441       .  S
O622        C624   1.287       .  A
O623       Zr637   2.436       .  S
O623        C624   1.289       .  A
C624        C676   1.473       .  S
O625       Zr634   2.457       .  S
O625        C627   1.291       .  A
O626       Zr638   2.427       .  S
O626        C627   1.286       .  A
C627        C661   1.483       .  S
O628       Zr631   2.457       .  S
O628        C630   1.290       .  A
O629       Zr637   2.434       .  S
O629        C630   1.289       .  A
C630        C721   1.481       .  S
Zr631       O632   2.434       .  S
Zr631       O633   2.433       .  S
Zr631       O639   2.374       .  S
Zr631       O640   2.375       .  S
Zr631       O643   2.377       .  S
Zr631       O641   2.372       .  S
O632        H652   0.990       .  S
O632        H657   0.990       .  S
O633        H653   0.990       .  S
Zr634       O635   2.434       .  S
Zr634       O636   2.437       .  S
Zr634       O640   2.382       .  S
Zr634       O639   2.371       .  S
Zr634       O644   2.376       .  S
Zr634       O642   2.388       .  S
O635        H651   0.990       .  S
O636        H650   0.991       .  S
O636        H660   0.990       .  S
Zr637       O640   2.394       .  S
Zr637       O642   2.390       .  S
Zr637       O643   2.392       .  S
Zr638       O639   2.390       .  S
Zr638       O641   2.377       .  S
Zr638       O644   2.387       .  S
O639        H647   0.966       .  S
O642        H646   0.966       .  S
O643        H648   0.965       .  S
C661        C662   1.401       .  A
C661        C666   1.415       .  A
C662        C663   1.399       .  A
C662        H671   1.084       .  S
C663        C664   1.417       .  A
C663        S667   1.804       .  S
C664        C665   1.406       .  A
C665        C666   1.405       .  A
C665        H672   1.083       .  S
C666        S668   1.801       .  S
S667        H670   1.407       .  S
S668        H669   1.406       .  S
C673        C674   1.405       .  A
C673        C678   1.413       .  A
C674        C675   1.399       .  A
C674        H683   1.083       .  S
C675        C944   1.409       .  A
C675        S679   1.801       .  S
C676        C943   1.409       .  A
C676        C677   1.404       .  A
C677        C946   1.399       .  A
C677        H684   1.084       .  S
C678        C945   1.405       .  A
C678        S680   1.802       .  S
S679        H950   1.405       .  S
S680        H681   1.406       .  S
H682        S947   1.406       .  S
C685        C686   1.399       .  A
C685        C690   1.412       .  A
C686        C687   1.396       .  A
C686        H695   1.084       .  S
C687        C688   1.421       .  A
C687        S691   1.806       .  S
C688        C689   1.408       .  A
C689        C690   1.413       .  A
C689        H696   1.081       .  S
C690        S692   1.804   1_554  S
S691        H694   1.407       .  S
S692        H693   1.407       .  S
C697        C698   1.402   1_556  A
C697        C970   1.413       .  A
C698        C699   1.398       .  A
C698        H707   1.082       .  S
C699        C700   1.417   1_554  A
C699        S703   1.805       .  S
C700        C969   1.406       .  A
C700        C848   1.499       .  S
C701        C968   1.403       .  A
C701        C702   1.401       .  A
C701        H708   1.084       .  S
C702        C965   1.412       .  A
C702        S704   1.802       .  S
S703        H706   1.406       .  S
S704        H705   1.407       .  S
C709        C710   1.402       .  A
C709        C714   1.412       .  A
C710        C711   1.402       .  A
C710        H719   1.084       .  S
C711        C712   1.415       .  A
C711        S715   1.799       .  S
C712        C713   1.403       .  A
C713        C714   1.393       .  A
C713        H720   1.084       .  S
C714        S716   1.806       .  S
S715        H718   1.405       .  S
S716        H717   1.397       .  S
C721        C722   1.400       .  A
C721        C726   1.415       .  A
C722        C991   1.398       .  A
C722        H731   1.084       .  S
C723        C990   1.399       .  A
C723        C724   1.418       .  A
C723        S727   1.801       .  S
C724        C993   1.408       .  A
C725        C992   1.406       .  A
C725        C726   1.410       .  A
C725        H732   1.082       .  S
C726        S728   1.802       .  S
S727        H730   1.406       .  S
S728        H729   1.405       .  S
C733       C1002   1.398       .  A
C733        C738   1.412       .  A
C734       C1001   1.399   1_554  A
C734        C735   1.398       .  A
C734        H743   1.083       .  S
C735        C736   1.419       .  A
C735        S739   1.808       .  S
C736       C1005   1.401   1_554  A
C737       C1004   1.403       .  A
C737        C738   1.399       .  A
C737        H744   1.084       .  S
C738        S740   1.803       .  S
S739        H742   1.407       .  S
C745        C746   1.395       .  A
C745        C750   1.405       .  A
C746        C747   1.401       .  A
C746        H755   1.081       .  S
C747        C748   1.419       .  A
C747        S751   1.801       .  S
C748        C749   1.406       .  A
C749        C750   1.388       .  A
C749        H756   1.080       .  S
C750        S752   1.812       .  S
S751        H754   1.407       .  S
S752        H753   1.406       .  S
C757        C758   1.408       .  A
C757        C762   1.416       .  A
C758        C759   1.406       .  A
C758        H767   1.084       .  S
C759        C760   1.421       .  A
C759       S1031   1.794       .  S
C760        N812   1.468       .  S
C760        C761   1.413       .  A
C761        C762   1.402       .  A
C761        H768   1.080       .  S
C762        S764   1.796       .  S
S763       C1027   1.795       .  S
S763        H766   1.400   1_556  S
S764        H765   1.392       .  S
C769       C1038   1.409       .  A
C769        C774   1.412       .  A
C770       C1037   1.407       .  A
C770        C771   1.402       .  A
C770        H779   1.084       .  S
C771       C1040   1.409       .  A
C771        S775   1.804       .  S
C772       C1039   1.407       .  A
C772        C773   1.409       .  A
C772        C806   1.478       .  S
C773        C774   1.398       .  A
C773        H780   1.084       .  S
C774        S776   1.805       .  S
S775        H778   1.404       .  S
S776        H777   1.405       .  S
C781        C782   1.411       .  A
C781        C786   1.420       .  A
C782        C783   1.399       .  A
C782        H791   1.081       .  S
C783        C784   1.414       .  A
C783        S787   1.799       .  S
C784        C785   1.406       .  A
C785        C786   1.406       .  A
C785        H792   1.083       .  S
C786        S788   1.799       .  S
S787        H790   1.393       .  S
S788        H789   1.402       .  S
C793        C794   1.405       .  A
C793        C798   1.416       .  A
C794        C795   1.392       .  A
C794        H803   1.083       .  S
C795        C796   1.411       .  A
C795        S799   1.810       .  S
C796        C797   1.400       .  A
C797        C798   1.400       .  A
C797        H804   1.083       .  S
C798        S800   1.799       .  S
S799        H802   1.403       .  S
S800       H1069   1.407       .  S
H801       S1068   1.406       .  S
N805        C806   1.368       .  A
N805       C1049   1.465       .  S
C807        C808   1.360       .  A
C807        H810   1.083       .  S
C808        C809   1.379       .  A
C808        H811   1.082       .  S
C809       C1061   1.482       .  S
N812        C816   1.369       .  A
N812        C813   1.370       .  A
C813        C814   1.382       .  A
C813       C1004   1.475       .  S
C814        C815   1.352       .  A
C814        H817   1.084       .  S
C815        C816   1.382       .  A
C815        H818   1.082       .  S
C816       C1016   1.489       .  S
N819        C823   1.356       .  A
N819        C820   1.361       .  A
N819        C992   1.449       .  S
C820        C821   1.386       .  A
C820        C965   1.475       .  S
C821        C822   1.365       .  A
C821        H824   1.083       .  S
C822        C823   1.377       .  A
C822        H825   1.082       .  S
C823        C980   1.473       .  S
N826        H858   1.034   1_554  S
N827       C1906   1.350   1_554  A
N827        C835   1.351       .  A
N828        C833   1.355       .  A
N828        H859   1.040   1_556  S
N829        C837   1.355       .  A
C830        C846   1.420   1_554  A
C831        C847   1.426       .  A
C831        C839   1.390       .  A
C832        C840   1.387   1_565  A
C832        C849   1.412   1_556  A
C833        C848   1.415       .  A
C833        C841   1.387       .  A
C834       N1899   1.347       .  A
C834        C846   1.410   1_655  A
C834        C842   1.388   1_556  A
C835        C849   1.412       .  A
C835        C843   1.386       .  A
C836        C844   1.389       .  A
C836       C1919   1.422       .  A
C837        C848   1.420       .  A
C838        H850   1.081       .  S
C839        H851   1.081       .  S
C840        H852   1.083       .  S
C841        H853   1.082       .  S
C842       C1915   1.372       .  A
C842        H854   1.082       .  S
C843       C1914   1.372       .  A
C843        H855   1.082       .  S
C844        C845   1.376       .  A
C844        H856   1.082       .  S
C845        H857   1.082       .  S
C846       C1001   1.486       .  S
C847       C1908   1.422       .  A
C847        C953   1.501       .  S
C849       C1037   1.484       .  S
N860        C864   1.363       .  A
N860        C861   1.368       .  A
N860        C941   1.447       .  S
C861        C862   1.385       .  A
C861        C956   1.496       .  S
C862        C863   1.368       .  A
C862        H865   1.082       .  S
C863        C864   1.381       .  A
C863        H866   1.082       .  S
C864        C932   1.491       .  S
O867       Zr879   2.420       .  S
O867        C869   1.284       .  A
O868       Zr905   2.421       .  S
O868        C869   1.286       .  A
C869       C1064   1.458       .  S
O870       Zr882   2.421       .  S
O870        C872   1.283       .  A
O871       Zr906   2.419       .  S
O871        C872   1.285       .  A
C872       C1013   1.456       .  S
O873       Zr882   2.443       .  S
O873        C875   1.288       .  A
O874       Zr905   2.453       .  S
O874        C875   1.291       .  A
C875       C1025   1.501       .  S
O876       Zr879   2.459       .  S
O876        C878   1.291       .  A
O877       Zr906   2.446       .  S
O877        C878   1.290       .  A
C878       C1052   1.501       .  S
Zr879       O880   2.434       .  S
Zr879       O881   2.436       .  S
Zr879       O885   2.378       .  S
Zr879       O886   2.359       .  S
Zr879       O909   2.356       .  S
Zr879       O911   2.375       .  S
O880        H923   0.990       .  S
O881        H922   0.990       .  S
O881        H926   0.990       .  S
Zr882       O883   2.437       .  S
Zr882       O884   2.434       .  S
Zr882       O886   2.373       .  S
Zr882       O885   2.361       .  S
Zr882       O910   2.359       .  S
Zr882       O912   2.379       .  S
O883        H924   0.990       .  S
O883        H927   0.990       .  S
O884        H917   0.990       .  S
O885       Zr905   2.383       .  S
O886       Zr906   2.376       .  S
O886        H913   0.966       .  S
O887       Zr899   2.449       .  S
O887        C889   1.289       .  A
O888       Zr906   2.407       .  S
O888        C889   1.282       .  A
C889        C977   1.462       .  S
O890       Zr902   2.447       .  S
O890        C892   1.288       .  A
O891       Zr905   2.441       .  S
O891        C892   1.290       .  A
C892        C944   1.479   1_556  S
O893       Zr902   2.461       .  S
O893        C895   1.292       .  A
O894       Zr906   2.425       .  S
O894        C895   1.286       .  A
C895        C929   1.484       .  S
O896       Zr899   2.461       .  S
O896        C898   1.291       .  A
O897       Zr905   2.445       .  S
O897        C898   1.291       .  A
C898        C989   1.492       .  S
Zr899       O900   2.434       .  S
Zr899       O901   2.433       .  S
Zr899       O907   2.376       .  S
Zr899       O908   2.377       .  S
Zr899       O911   2.372       .  S
Zr899       O909   2.378       .  S
O900        H920   0.990       .  S
O900        H925   0.990       .  S
O901        H921   0.990       .  S
Zr902       O903   2.435       .  S
Zr902       O904   2.438       .  S
Zr902       O908   2.385       .  S
Zr902       O907   2.375       .  S
Zr902       O912   2.376       .  S
Zr902       O910   2.380       .  S
O903        H919   0.990       .  S
O904        H918   0.990       .  S
O904        H928   0.990       .  S
Zr905       O908   2.389       .  S
Zr905       O910   2.386       .  S
Zr905       O911   2.391       .  S
Zr906       O907   2.392       .  S
Zr906       O909   2.379       .  S
Zr906       O912   2.387       .  S
O907        H915   0.966       .  S
O910        H914   0.966       .  S
O911        H916   0.965       .  S
C929        C930   1.402       .  A
C929        C934   1.417       .  A
C930        C931   1.398       .  A
C930        H939   1.084       .  S
C931        C932   1.414       .  A
C931        S935   1.804       .  S
C932        C933   1.405       .  A
C933        C934   1.406       .  A
C933        H940   1.084       .  S
C934        S936   1.800       .  S
S935        H938   1.407       .  S
S936        H937   1.406       .  S
C941        C942   1.408       .  A
C941        C946   1.414       .  A
C942        C943   1.400       .  A
C942        H951   1.083       .  S
C943        S947   1.803       .  S
C944        C945   1.407       .  A
C945        H952   1.084       .  S
C946        S948   1.801       .  S
S948        H949   1.405       .  S
C953        C954   1.400       .  A
C953        C958   1.415       .  A
C954        C955   1.394       .  A
C954        H963   1.084       .  S
C955        C956   1.419       .  A
C955        S959   1.805       .  S
C956        C957   1.408       .  A
C957        C958   1.412       .  A
C957        H964   1.082       .  S
C958        S960   1.805       .  S
S959        H962   1.406       .  S
S960        H961   1.407       .  S
C965        C966   1.403       .  A
C966        C967   1.398       .  A
C966        H975   1.084       .  S
C967        C968   1.416       .  A
C967        S971   1.805       .  S
C969        C970   1.404       .  A
C969        H976   1.084       .  S
C970        S972   1.802       .  S
S971        H974   1.405       .  S
S972        H973   1.407       .  S
C977        C978   1.400       .  A
C977        C982   1.408       .  A
C978        C979   1.405       .  A
C978        H987   1.083       .  S
C979        C980   1.414       .  A
C979        S983   1.805       .  S
C980        C981   1.399       .  A
C981        C982   1.390       .  A
C981        H988   1.084       .  S
C982        S984   1.797       .  S
S983        H986   1.407       .  S
S984        H985   1.404       .  S
C989        C990   1.402       .  A
C989        C994   1.418       .  A
C990        H999   1.084       .  S
C991        C992   1.417       .  A
C991        S995   1.802       .  S
C993        C994   1.412       .  A
C993       H1000   1.081       .  S
C994        S996   1.802       .  S
S995        H998   1.405       .  S
S996        H997   1.406       .  S
C1001      C1006   1.412       .  A
C1002      C1003   1.395       .  A
C1002      H1011   1.083       .  S
C1003      C1004   1.419       .  A
C1003      S1007   1.805       .  S
C1005      C1006   1.398       .  A
C1005      H1012   1.084       .  S
C1006      S1008   1.803       .  S
S1007      H1010   1.407       .  S
C1013      C1014   1.399       .  A
C1013      C1018   1.402       .  A
C1014      C1015   1.406       .  A
C1014      H1023   1.080       .  S
C1015      C1016   1.419       .  A
C1015      S1019   1.804       .  S
C1016      C1017   1.406       .  A
C1017      C1018   1.385       .  A
C1017      H1024   1.081       .  S
C1018      S1020   1.811       .  S
S1019      H1022   1.407       .  S
S1020      H1021   1.407       .  S
C1025      C1026   1.408       .  A
C1025      C1030   1.415       .  A
C1026      C1027   1.406       .  A
C1026      H1035   1.084       .  S
C1027      C1028   1.420   1_556  A
C1028      C1029   1.413       .  A
C1029      C1030   1.401   1_554  A
C1029      H1036   1.081       .  S
C1030      S1032   1.796       .  S
S1031      H1034   1.401       .  S
S1032      H1033   1.388       .  S
C1037      C1042   1.410   1_554  A
C1038      C1039   1.400       .  A
C1038      H1047   1.084       .  S
C1039      S1043   1.803       .  S
C1040      C1041   1.406   1_554  A
C1041      C1042   1.391       .  A
C1041      H1048   1.085       .  S
C1042      S1044   1.806       .  S
S1043      H1046   1.404       .  S
S1044      H1045   1.404       .  S
C1049      C1050   1.413       .  A
C1049      C1054   1.419       .  A
C1050      C1051   1.401       .  A
C1050      H1059   1.081       .  S
C1051      C1052   1.416       .  A
C1051      S1055   1.801       .  S
C1052      C1053   1.408       .  A
C1053      C1054   1.408       .  A
C1053      H1060   1.083       .  S
C1054      S1056   1.798       .  S
S1055      H1058   1.393       .  S
S1056      H1057   1.402       .  S
C1061      C1062   1.404       .  A
C1061      C1066   1.415       .  A
C1062      C1063   1.390       .  A
C1062      H1071   1.083       .  S
C1063      C1064   1.411       .  A
C1063      S1067   1.812       .  S
C1064      C1065   1.400       .  A
C1065      C1066   1.399       .  A
C1065      H1072   1.084       .  S
C1066      S1068   1.799       .  S
S1067      H1070   1.402       .  S
N1073      C1345   1.365       .  A
N1073      C1074   1.365       .  A
N1073      C1317   1.461   1_556  S
C1074      C1343   1.383       .  A
C1074      C1576   1.468       .  S
C1075      C1342   1.383       .  A
C1075      C1076   1.362       .  A
C1075      H1078   1.083       .  S
C1076      C1077   1.379       .  A
C1076      H1079   1.082       .  S
C1077      N1341   1.364       .  A
C1077      C1329   1.482       .  S
N1080      C1084   1.370       .  A
N1080      C1081   1.371       .  A
N1080      C1564   1.467       .  S
C1081      C1082   1.382       .  A
C1081      C1272   1.482       .  S
C1082      C1083   1.355       .  A
C1082      H1085   1.084       .  S
C1083      C1084   1.381       .  A
C1083      H1086   1.082       .  S
C1084      C1284   1.495       .  S
N1087      C1091   1.362       .  A
N1087      C1088   1.362   1_554  A
N1087      C1260   1.453   1_554  S
C1088      C1089   1.384   1_556  A
C1088      C1233   1.474       .  S
C1089      C1090   1.363       .  A
C1089      H1092   1.083       .  S
C1090      C1091   1.379       .  A
C1090      H1093   1.082       .  S
C1091      C1248   1.478       .  S
N1094      C1367   1.361       .  A
N1094      C1634   1.361   1_545  A
N1094      H1126   1.041       .  S
N1095      C1103   1.349       .  A
N1096      C1101   1.354       .  A
N1096      C1636   1.351       .  A
N1096      H1127   1.041       .  S
N1097      C1372   1.350   1_655  A
N1097      C1105   1.352       .  A
C1098      N1630   1.357       .  A
C1098      C1642   1.385       .  A
C1098      C1114   1.419       .  A
C1099      N1362   1.361       .  A
C1099      C1115   1.429       .  A
C1099      C1107   1.388       .  A
C1100      N1632   1.352       .  A
C1100      C1108   1.388       .  A
C1100      C1117   1.416       .  A
C1101      C1116   1.411       .  A
C1101      C1109   1.387       .  A
C1102      C1114   1.407       .  A
C1102      C1110   1.386       .  A
C1103      C1117   1.412       .  A
C1103      C1111   1.388       .  A
C1104      N1365   1.353   1_455  A
C1104      C1112   1.388       .  A
C1105      C1381   1.385       .  A
C1105      C1116   1.416       .  A
C1106      C1634   1.386       .  A
C1106      C1375   1.374   1_565  A
C1106      H1118   1.082       .  S
C1107      C1374   1.372   1_545  A
C1107      H1119   1.081       .  S
C1108      C1645   1.369       .  A
C1108      H1120   1.082       .  S
C1109      C1644   1.372       .  A
C1109      H1121   1.082       .  S
C1110      H1122   1.082       .  S
C1111      H1123   1.082       .  S
C1112      C1113   1.375   1_455  A
C1112      H1124   1.082   1_556  S
C1113      C1373   1.386       .  A
C1113      H1125   1.082       .  S
C1114      C1269   1.485       .  S
C1115      C1221   1.504       .  S
C1116      C1504   1.492       .  S
C1117      C1305   1.482       .  S
N1128      C1132   1.361       .  A
N1128      C1129   1.366       .  A
N1128      C1209   1.443       .  S
C1129      C1130   1.386       .  A
C1129      C1224   1.499       .  S
C1130      C1131   1.371       .  A
C1130      H1133   1.082       .  S
C1131      C1132   1.381       .  A
C1131      H1134   1.082       .  S
C1132      C1200   1.490       .  S
O1135     Zr1147   2.430       .  S
O1135      C1137   1.286       .  A
O1136     Zr1173   2.414       .  S
O1136      C1137   1.284       .  A
C1137      C1332   1.462       .  S
O1138     Zr1150   2.435       .  S
O1138      C1140   1.284       .  A
O1139     Zr1174   2.422       .  S
O1139      C1140   1.285       .  A
C1140      C1281   1.463       .  S
O1141     Zr1150   2.442       .  S
O1141      C1143   1.288       .  A
O1142     Zr1173   2.443       .  S
O1142      C1143   1.289       .  A
C1143      C1293   1.496       .  S
O1144     Zr1147   2.460       .  S
O1144      C1146   1.291       .  A
O1145     Zr1174   2.427       .  S
O1145      C1146   1.286       .  A
C1146      C1320   1.491       .  S
Zr1147     O1148   2.435       .  S
Zr1147     O1149   2.437       .  S
Zr1147     O1153   2.373       .  S
Zr1147     O1154   2.359       .  S
Zr1147     O1177   2.360       .  S
Zr1147     O1179   2.375       .  S
O1148      H1191   0.990       .  S
O1149      H1190   0.990       .  S
O1149      H1194   0.990       .  S
Zr1150     O1151   2.438       .  S
Zr1150     O1152   2.436       .  S
Zr1150     O1154   2.381       .  S
Zr1150     O1153   2.368       .  S
Zr1150     O1178   2.360       .  S
Zr1150     O1180   2.371       .  S
O1151      H1192   0.990       .  S
O1151      H1195   0.990       .  S
O1152      H1185   0.990       .  S
O1153     Zr1173   2.384       .  S
O1154     Zr1174   2.384       .  S
O1154      H1181   0.965       .  S
O1155     Zr1167   2.449       .  S
O1155      C1157   1.289       .  A
O1156     Zr1174   2.406       .  S
O1156      C1157   1.282       .  A
C1157      C1245   1.462       .  S
O1158     Zr1170   2.446       .  S
O1158      C1160   1.289       .  A
O1159     Zr1173   2.436       .  S
O1159      C1160   1.289       .  A
C1160      C1212   1.473       .  S
O1161     Zr1170   2.457       .  S
O1161      C1163   1.291       .  A
O1162     Zr1174   2.423       .  S
O1162      C1163   1.286       .  A
C1163      C1197   1.482       .  S
O1164     Zr1167   2.457       .  S
O1164      C1166   1.289       .  A
O1165     Zr1173   2.440       .  S
O1165      C1166   1.290       .  A
C1166      C1257   1.485       .  S
Zr1167     O1168   2.435       .  S
Zr1167     O1169   2.435       .  S
Zr1167     O1175   2.374       .  S
Zr1167     O1176   2.375       .  S
Zr1167     O1179   2.375       .  S
Zr1167     O1177   2.375       .  S
O1168      H1188   0.990       .  S
O1168      H1193   0.990       .  S
O1169      H1189   0.990       .  S
Zr1170     O1171   2.435       .  S
Zr1170     O1172   2.437       .  S
Zr1170     O1176   2.379       .  S
Zr1170     O1175   2.373       .  S
Zr1170     O1180   2.380       .  S
Zr1170     O1178   2.384       .  S
O1171      H1187   0.990       .  S
O1172      H1186   0.990       .  S
O1172      H1196   0.991       .  S
Zr1173     O1176   2.387       .  S
Zr1173     O1178   2.389       .  S
Zr1173     O1179   2.390       .  S
Zr1174     O1175   2.390       .  S
Zr1174     O1177   2.382       .  S
Zr1174     O1180   2.385       .  S
O1175      H1183   0.966       .  S
O1178      H1182   0.966       .  S
O1179      H1184   0.966       .  S
C1197      C1198   1.401       .  A
C1197      C1202   1.416       .  A
C1198      C1199   1.398       .  A
C1198      H1207   1.084       .  S
C1199      C1200   1.414       .  A
C1199      S1203   1.803       .  S
C1200      C1201   1.405       .  A
C1201      C1202   1.405       .  A
C1201      H1208   1.083       .  S
C1202      S1204   1.800       .  S
S1203      H1206   1.407       .  S
S1204      H1205   1.406       .  S
C1209      C1210   1.405       .  A
C1209      C1214   1.412       .  A
C1210      C1211   1.399       .  A
C1210      H1219   1.083       .  S
C1211      C1480   1.411   1_554  A
C1211      S1215   1.804       .  S
C1212      C1479   1.412       .  A
C1212      C1213   1.404       .  A
C1213      C1482   1.400       .  A
C1213      H1220   1.084       .  S
C1214      C1481   1.402       .  A
C1214      S1216   1.802       .  S
S1215      H1486   1.406   1_554  S
S1216      H1217   1.406       .  S
H1218      S1483   1.404       .  S
C1221      C1222   1.400       .  A
C1221      C1226   1.415       .  A
C1222      C1223   1.395       .  A
C1222      H1231   1.084       .  S
C1223      C1224   1.419       .  A
C1223      S1227   1.805       .  S
C1224      C1225   1.409       .  A
C1225      C1226   1.413       .  A
C1225      H1232   1.081       .  S
C1226      S1228   1.805   1_554  S
S1227      H1230   1.406       .  S
S1228      H1229   1.407       .  S
C1233      C1234   1.402       .  A
C1233      C1506   1.411       .  A
C1234      C1235   1.399       .  A
C1234      H1243   1.083   1_556  S
C1235      C1236   1.419       .  A
C1235      S1239   1.806   1_556  S
C1236      C1505   1.404       .  A
C1236      C1384   1.498       .  S
C1237      C1504   1.403       .  A
C1237      C1238   1.401       .  A
C1237      H1244   1.084       .  S
C1238      C1501   1.412       .  A
C1238      S1240   1.802       .  S
S1239      H1242   1.406       .  S
S1240      H1241   1.408       .  S
C1245      C1246   1.400       .  A
C1245      C1250   1.411       .  A
C1246      C1247   1.399       .  A
C1246      H1255   1.084       .  S
C1247      C1248   1.415       .  A
C1247      S1251   1.800       .  S
C1248      C1249   1.404       .  A
C1249      C1250   1.394       .  A
C1249      H1256   1.084       .  S
C1250      S1252   1.807       .  S
S1251      H1254   1.405       .  S
S1252      H1253   1.400       .  S
C1257      C1258   1.400       .  A
C1257      C1262   1.417       .  A
C1258      C1527   1.397       .  A
C1258      H1267   1.084       .  S
C1259      C1526   1.402       .  A
C1259      C1260   1.416       .  A
C1259      S1263   1.802       .  S
C1260      C1529   1.406       .  A
C1261      C1528   1.407       .  A
C1261      C1262   1.412       .  A
C1261      H1268   1.082       .  S
C1262      S1264   1.804       .  S
S1263      H1266   1.407       .  S
S1264      H1265   1.405       .  S
C1269      C1538   1.397       .  A
C1269      C1274   1.410       .  A
C1270      C1537   1.400   1_554  A
C1270      C1271   1.403       .  A
C1270      H1279   1.083       .  S
C1271      C1272   1.420       .  A
C1271      S1275   1.808       .  S
C1272      C1541   1.403   1_554  A
C1273      C1540   1.405       .  A
C1273      C1274   1.400       .  A
C1273      H1280   1.084       .  S
C1274      S1276   1.803       .  S
S1275      H1278   1.406       .  S
S1276      H1813   1.406       .  S
H1277      S1812   1.405       .  S
C1281      C1282   1.397       .  A
C1281      C1286   1.405       .  A
C1282      C1283   1.404       .  A
C1282      H1291   1.080       .  S
C1283      C1284   1.419       .  A
C1283      S1287   1.805       .  S
C1284      C1285   1.409       .  A
C1285      C1286   1.392       .  A
C1285      H1292   1.080       .  S
C1286      S1288   1.812       .  S
S1287      H1290   1.407       .  S
S1288      H1289   1.406       .  S
C1293      C1294   1.407       .  A
C1293      C1298   1.414       .  A
C1294      C1295   1.403       .  A
C1294      H1303   1.084       .  S
C1295      C1296   1.419       .  A
C1295      S1567   1.796       .  S
C1296      N1348   1.465       .  S
C1296      C1297   1.415       .  A
C1297      C1298   1.405       .  A
C1297      H1304   1.080       .  S
C1298      S1300   1.805       .  S
S1299      C1563   1.795       .  S
S1299      H1302   1.401   1_556  S
S1300      H1301   1.406       .  S
C1305      C1574   1.406       .  A
C1305      C1310   1.411       .  A
C1306      C1573   1.406   1_554  A
C1306      C1307   1.400       .  A
C1306      H1315   1.084       .  S
C1307      C1576   1.408   1_554  A
C1307      S1311   1.804       .  S
C1308      C1575   1.410       .  A
C1308      C1309   1.404       .  A
C1308      C1342   1.469       .  S
C1309      C1310   1.389       .  A
C1309      H1316   1.085       .  S
C1310      S1312   1.807       .  S
S1311      H1314   1.403       .  S
S1312      H1313   1.405       .  S
C1317      C1318   1.409       .  A
C1317      C1322   1.421       .  A
C1318      C1319   1.397       .  A
C1318      H1327   1.081       .  S
C1319      C1320   1.415       .  A
C1319      S1323   1.800       .  S
C1320      C1321   1.405       .  A
C1321      C1322   1.406       .  A
C1321      H1328   1.084       .  S
C1322      S1324   1.799       .  S
S1323      H1326   1.394       .  S
S1324      H1325   1.402   1_554  S
C1329      C1330   1.405       .  A
C1329      C1334   1.414       .  A
C1330      C1331   1.393       .  A
C1330      H1339   1.084       .  S
C1331      C1332   1.410       .  A
C1331      S1335   1.806       .  S
C1332      C1333   1.399       .  A
C1333      C1334   1.397       .  A
C1333      H1340   1.084       .  S
C1334      S1336   1.797       .  S
S1335      H1338   1.404       .  S
S1336      H1605   1.407       .  S
H1337      S1604   1.407       .  S
N1341      C1342   1.363       .  A
N1341      C1585   1.455       .  S
C1343      C1344   1.359       .  A
C1343      H1346   1.083       .  S
C1344      C1345   1.379       .  A
C1344      H1347   1.082       .  S
C1345      C1597   1.481       .  S
N1348      C1352   1.369       .  A
N1348      C1349   1.369       .  A
C1349      C1350   1.381       .  A
C1349      C1540   1.485       .  S
C1350      C1351   1.356       .  A
C1350      H1353   1.084       .  S
C1351      C1352   1.386       .  A
C1351      H1354   1.080       .  S
C1352      C1552   1.505       .  S
N1355      C1359   1.360       .  A
N1355      C1356   1.362       .  A
N1355      C1528   1.452       .  S
C1356      C1357   1.385       .  A
C1356      C1501   1.477       .  S
C1357      C1358   1.365       .  A
C1357      H1360   1.083       .  S
C1358      C1359   1.379       .  A
C1358      H1361   1.082       .  S
C1359      C1516   1.482       .  S
N1362      C1902   1.357   1_545  A
N1362      H1394   1.035   1_554  S
N1363      C1371   1.349   1_556  A
N1364      C1369   1.354       .  A
N1364      C1904   1.351   1_545  A
N1364      H1395   1.041   1_556  S
N1365      C1373   1.355       .  A
C1366      N1898   1.358   1_554  A
C1366      C1910   1.386       .  A
C1366      C1382   1.424   1_554  A
C1367      C1383   1.428       .  A
C1367      C1375   1.388       .  A
C1368      N1900   1.351       .  A
C1368      C1376   1.387       .  A
C1368      C1385   1.412       .  A
C1369      C1384   1.412       .  A
C1369      C1377   1.387       .  A
C1370      C1382   1.412       .  A
C1370      C1378   1.387       .  A
C1371      C1385   1.410   1_554  A
C1371      C1379   1.386       .  A
C1372      C1380   1.389   1_455  A
C1373      C1384   1.422       .  A
C1374      C1902   1.386       .  A
C1374      H1386   1.081       .  S
C1375      H1387   1.082       .  S
C1376      C1913   1.373       .  A
C1376      H1388   1.083       .  S
C1377      C1912   1.371       .  A
C1377      H1389   1.082       .  S
C1378      H1390   1.082       .  S
C1379      H1391   1.082       .  S
C1380      C1381   1.375       .  A
C1380      H1392   1.082   1_655  S
C1381      H1393   1.082       .  S
C1382      C1537   1.492       .  S
C1383      C1489   1.508       .  S
C1385      C1573   1.481       .  S
N1396      C1400   1.361       .  A
N1396      C1397   1.366       .  A
N1396      C1477   1.444       .  S
C1397      C1398   1.384       .  A
C1397      C1492   1.495       .  S
C1398      C1399   1.371       .  A
C1398      H1401   1.082       .  S
C1399      C1400   1.381       .  A
C1399      H1402   1.082       .  S
C1400      C1468   1.489       .  S
O1403     Zr1415   2.415       .  S
O1403      C1405   1.283       .  A
O1404     Zr1441   2.416       .  S
O1404      C1405   1.285       .  A
C1405      C1600   1.456       .  S
O1406     Zr1418   2.427       .  S
O1406      C1408   1.284       .  A
O1407     Zr1442   2.430       .  S
O1407      C1408   1.287       .  A
C1408      C1549   1.465       .  S
O1409     Zr1418   2.439       .  S
O1409      C1411   1.287       .  A
O1410     Zr1441   2.458       .  S
O1410      C1411   1.292       .  A
C1411      C1561   1.499       .  S
O1412     Zr1415   2.450       .  S
O1412      C1414   1.289       .  A
O1413     Zr1442   2.434       .  S
O1413      C1414   1.288       .  A
C1414      C1588   1.488       .  S
Zr1415     O1416   2.434       .  S
Zr1415     O1417   2.438       .  S
Zr1415     O1421   2.375       .  S
Zr1415     O1422   2.355       .  S
Zr1415     O1445   2.356       .  S
Zr1415     O1447   2.370       .  S
O1416      H1459   0.990       .  S
O1417      H1458   0.990       .  S
O1417      H1462   0.990       .  S
Zr1418     O1419   2.437       .  S
Zr1418     O1420   2.435       .  S
Zr1418     O1422   2.374       .  S
Zr1418     O1421   2.367       .  S
Zr1418     O1446   2.363       .  S
Zr1418     O1448   2.376       .  S
O1419      H1460   0.990       .  S
O1419      H1463   0.990       .  S
O1420      H1453   0.990       .  S
O1421     Zr1441   2.386       .  S
O1422     Zr1442   2.380       .  S
O1422      H1449   0.966       .  S
O1423     Zr1435   2.452       .  S
O1423      C1425   1.289       .  A
O1424     Zr1442   2.413       .  S
O1424      C1425   1.284       .  A
C1425      C1513   1.466       .  S
O1426     Zr1438   2.443       .  S
O1426      C1428   1.288       .  A
O1427     Zr1441   2.438       .  S
O1427      C1428   1.290       .  A
C1428      C1480   1.475       .  S
O1429     Zr1438   2.450       .  S
O1429      C1431   1.290       .  A
O1430     Zr1442   2.430       .  S
O1430      C1431   1.288       .  A
C1431      C1465   1.481       .  S
O1432     Zr1435   2.461       .  S
O1432      C1434   1.290       .  A
O1433     Zr1441   2.450       .  S
O1433      C1434   1.291       .  A
C1434      C1525   1.490       .  S
Zr1435     O1436   2.434       .  S
Zr1435     O1437   2.434       .  S
Zr1435     O1443   2.371       .  S
Zr1435     O1444   2.373       .  S
Zr1435     O1447   2.374       .  S
Zr1435     O1445   2.375       .  S
O1436      H1456   0.990       .  S
O1436      H1461   0.990       .  S
O1437      H1457   0.990       .  S
Zr1438     O1439   2.434       .  S
Zr1438     O1440   2.435       .  S
Zr1438     O1444   2.386       .  S
Zr1438     O1443   2.376       .  S
Zr1438     O1448   2.376       .  S
Zr1438     O1446   2.380       .  S
O1439      H1455   0.990       .  S
O1440      H1454   0.990       .  S
O1440      H1464   0.990       .  S
Zr1441     O1444   2.390       .  S
Zr1441     O1446   2.389       .  S
Zr1441     O1447   2.393       .  S
Zr1442     O1443   2.391       .  S
Zr1442     O1445   2.382       .  S
Zr1442     O1448   2.383       .  S
O1443      H1451   0.966       .  S
O1446      H1450   0.966       .  S
O1447      H1452   0.965       .  S
C1465      C1466   1.403       .  A
C1465      C1470   1.414       .  A
C1466      C1467   1.400       .  A
C1466      H1475   1.084       .  S
C1467      C1468   1.415       .  A
C1467      S1471   1.804       .  S
C1468      C1469   1.404       .  A
C1469      C1470   1.403       .  A
C1469      H1476   1.083       .  S
C1470      S1472   1.802       .  S
S1471      H1474   1.407       .  S
S1472      H1473   1.407       .  S
C1477      C1478   1.407       .  A
C1477      C1482   1.410       .  A
C1478      C1479   1.403       .  A
C1478      H1487   1.083       .  S
C1479      S1483   1.806       .  S
C1480      C1481   1.405   1_556  A
C1481      H1488   1.084   1_554  S
C1482      S1484   1.799       .  S
S1484      H1485   1.406       .  S
C1489      C1490   1.402       .  A
C1489      C1494   1.416       .  A
C1490      C1491   1.399       .  A
C1490      H1499   1.084       .  S
C1491      C1492   1.419       .  A
C1491      S1495   1.807       .  S
C1492      C1493   1.406       .  A
C1493      C1494   1.414       .  A
C1493      H1500   1.082       .  S
C1494      S1496   1.805       .  S
S1495      H1498   1.404       .  S
S1496      H1497   1.406       .  S
C1501      C1502   1.403       .  A
C1502      C1503   1.399       .  A
C1502      H1511   1.084       .  S
C1503      C1504   1.415       .  A
C1503      S1507   1.804       .  S
C1505      C1506   1.402       .  A
C1505      H1512   1.083       .  S
C1506      S1508   1.801       .  S
S1507      H1510   1.406       .  S
S1508      H1509   1.408       .  S
C1513      C1514   1.401       .  A
C1513      C1518   1.412       .  A
C1514      C1515   1.406       .  A
C1514      H1523   1.083       .  S
C1515      C1516   1.414       .  A
C1515      S1519   1.805       .  S
C1516      C1517   1.402       .  A
C1517      C1518   1.393       .  A
C1517      H1524   1.084       .  S
C1518      S1520   1.805       .  S
S1519      H1522   1.406       .  S
S1520      H1521   1.397       .  S
C1525      C1526   1.402       .  A
C1525      C1530   1.416       .  A
C1526      H1535   1.083       .  S
C1527      C1528   1.416       .  A
C1527      S1531   1.801       .  S
C1529      C1530   1.411       .  A
C1529      H1536   1.082       .  S
C1530      S1532   1.802       .  S
S1531      H1534   1.406       .  S
S1532      H1533   1.405       .  S
C1537      C1542   1.411       .  A
C1538      C1539   1.399       .  A
C1538      H1547   1.083       .  S
C1539      C1540   1.422       .  A
C1539      S1543   1.806       .  S
C1541      C1542   1.401       .  A
C1541      H1548   1.084       .  S
C1542      S1544   1.802       .  S
S1543      H1546   1.406       .  S
S1544      H2081   1.406       .  S
H1545      S2080   1.407       .  S
C1549      C1550   1.395       .  A
C1549      C1554   1.404       .  A
C1550      C1551   1.405       .  A
C1550      H1559   1.081       .  S
C1551      C1552   1.426       .  A
C1551      S1555   1.805       .  S
C1552      C1553   1.411       .  A
C1553      C1554   1.392       .  A
C1553      H1560   1.077       .  S
C1554      S1556   1.812       .  S
S1555      H1558   1.406       .  S
S1556      H1557   1.407       .  S
C1561      C1562   1.408       .  A
C1561      C1566   1.414       .  A
C1562      C1563   1.407       .  A
C1562      H1571   1.084       .  S
C1563      C1564   1.420   1_556  A
C1564      C1565   1.414       .  A
C1565      C1566   1.400   1_554  A
C1565      H1572   1.080       .  S
C1566      S1568   1.796       .  S
S1567      H1570   1.402       .  S
S1568      H1569   1.389       .  S
C1573      C1578   1.410       .  A
C1574      C1575   1.401       .  A
C1574      H1583   1.084       .  S
C1575      S1579   1.804       .  S
C1576      C1577   1.406       .  A
C1577      C1578   1.391       .  A
C1577      H1584   1.085       .  S
C1578      S1580   1.806       .  S
S1579      H1582   1.401       .  S
S1580      H1581   1.405       .  S
C1585      C1586   1.407       .  A
C1585      C1590   1.419       .  A
C1586      C1587   1.396       .  A
C1586      H1595   1.082       .  S
C1587      C1588   1.412       .  A
C1587      S1591   1.797       .  S
C1588      C1589   1.405       .  A
C1589      C1590   1.404       .  A
C1589      H1596   1.082       .  S
C1590      S1592   1.801       .  S
S1591      H1594   1.398       .  S
S1592      H1593   1.401       .  S
C1597      C1598   1.404       .  A
C1597      C1602   1.414       .  A
C1598      C1599   1.389       .  A
C1598      H1607   1.083       .  S
C1599      C1600   1.410       .  A
C1599      S1603   1.812       .  S
C1600      C1601   1.399       .  A
C1601      C1602   1.398       .  A
C1601      H1608   1.082       .  S
C1602      S1604   1.799       .  S
S1603      H1606   1.403       .  S
N1609      C1881   1.364       .  A
N1609      C1610   1.365       .  A
N1609      C1853   1.460   1_556  S
C1610      C1879   1.384       .  A
C1610      C2112   1.472   1_556  S
C1611      C1878   1.382       .  A
C1611      C1612   1.359       .  A
C1611      H1614   1.083       .  S
C1612      C1613   1.380       .  A
C1612      H1615   1.082       .  S
C1613      N1877   1.365       .  A
C1613      C1865   1.481       .  S
N1616      C1620   1.372       .  A
N1616      C1617   1.373       .  A
N1616      C2100   1.470       .  S
C1617      C1618   1.382       .  A
C1617      C1808   1.485       .  S
C1618      C1619   1.353       .  A
C1618      H1621   1.083       .  S
C1619      C1620   1.381       .  A
C1619      H1622   1.082       .  S
C1620      C1820   1.496       .  S
N1623      C1627   1.358       .  A
N1623      C1624   1.359       .  A
N1623      C1796   1.448   1_554  S
C1624      C1625   1.384       .  A
C1624      C1769   1.472   1_554  S
C1625      C1626   1.368       .  A
C1625      H1628   1.083       .  S
C1626      C1627   1.379       .  A
C1626      H1629   1.082       .  S
C1627      C1784   1.476       .  S
N1630      C1903   1.358       .  A
N1630      H1662   1.036       .  S
N1631      C1639   1.349       .  A
N1632      C1637   1.357       .  A
N1632      H1663   1.040       .  S
N1633      C1908   1.351   1_655  A
N1633      C1641   1.352       .  A
C1634      C1650   1.426       .  A
C1635      N1898   1.362   1_554  A
C1635      C1651   1.431       .  A
C1635      C1643   1.389       .  A
C1636      C1644   1.386       .  A
C1636      C1653   1.410   1_545  A
C1637      C1652   1.416       .  A
C1637      C1645   1.386       .  A
C1638      C1650   1.423       .  A
C1638      C1646   1.389       .  A
C1639      C1653   1.408       .  A
C1639      C1647   1.385       .  A
C1640      N1901   1.351   1_454  A
C1640      C1648   1.387   1_455  A
C1641      C1917   1.385       .  A
C1641      C1652   1.418       .  A
C1642      C1911   1.372       .  A
C1642      H1654   1.082       .  S
C1643      C1910   1.373       .  A
C1643      H1655   1.081       .  S
C1644      H1656   1.082       .  S
C1645      H1657   1.082       .  S
C1646      H1658   1.082       .  S
C1647      H1659   1.082       .  S
C1648      C1649   1.373       .  A
C1648      H1660   1.082   1_655  S
C1649      C1909   1.386   1_554  A
C1649      H1661   1.082       .  S
C1650      C1805   1.510       .  S
C1651      C1757   1.508       .  S
C1652      C2040   1.496       .  S
C1653      C1841   1.483       .  S
N1664      C1668   1.364       .  A
N1664      C1665   1.367       .  A
N1664      C1745   1.443       .  S
C1665      C1666   1.385       .  A
C1665      C1760   1.500       .  S
C1666      C1667   1.370       .  A
C1666      H1669   1.082       .  S
C1667      C1668   1.381       .  A
C1667      H1670   1.082       .  S
C1668      C1736   1.494       .  S
O1671     Zr1683   2.434       .  S
O1671      C1673   1.286       .  A
O1672     Zr1709   2.411       .  S
O1672      C1673   1.283       .  A
C1673      C1868   1.461       .  S
O1674     Zr1686   2.442       .  S
O1674      C1676   1.286       .  A
O1675     Zr1710   2.422       .  S
O1675      C1676   1.285       .  A
C1676      C1817   1.467       .  S
O1677     Zr1686   2.437       .  S
O1677      C1679   1.287       .  A
O1678     Zr1709   2.473       .  S
O1678      C1679   1.295       .  A
C1679      C1829   1.498       .  S
O1680     Zr1683   2.438       .  S
O1680      C1682   1.288       .  A
O1681     Zr1710   2.441       .  S
O1681      C1682   1.289       .  A
C1682      C1856   1.486       .  S
Zr1683     O1684   2.435       .  S
Zr1683     O1685   2.436       .  S
Zr1683     O1689   2.366       .  S
Zr1683     O1690   2.364       .  S
Zr1683     O1713   2.363       .  S
Zr1683     O1715   2.369       .  S
O1684      H1727   0.990       .  S
O1685      H1726   0.990       .  S
O1685      H1730   0.990       .  S
Zr1686     O1687   2.437       .  S
Zr1686     O1688   2.434       .  S
Zr1686     O1690   2.371       .  S
Zr1686     O1689   2.372       .  S
Zr1686     O1714   2.367       .  S
Zr1686     O1716   2.376       .  S
O1687      H1728   0.990       .  S
O1687      H1731   0.990       .  S
O1688      H1721   0.990       .  S
O1689     Zr1709   2.380       .  S
O1690     Zr1710   2.381       .  S
O1690      H1717   0.966       .  S
O1691     Zr1703   2.453       .  S
O1691      C1693   1.290       .  A
O1692     Zr1710   2.404       .  S
O1692      C1693   1.282       .  A
C1693      C1781   1.463       .  S
O1694     Zr1706   2.450       .  S
O1694      C1696   1.289       .  A
O1695     Zr1709   2.411       .  S
O1695      C1696   1.284       .  A
C1696      C1748   1.463       .  S
O1697     Zr1706   2.466       .  S
O1697      C1699   1.293       .  A
O1698     Zr1710   2.432       .  S
O1698      C1699   1.287       .  A
C1699      C1733   1.492       .  S
O1700     Zr1703   2.458       .  S
O1700      C1702   1.290       .  A
O1701     Zr1709   2.470       .  S
O1701      C1702   1.296       .  A
C1702      C1793   1.502       .  S
Zr1703     O1704   2.435       .  S
Zr1703     O1705   2.434       .  S
Zr1703     O1711   2.373       .  S
Zr1703     O1712   2.376       .  S
Zr1703     O1715   2.379       .  S
Zr1703     O1713   2.371       .  S
O1704      H1724   0.990       .  S
O1704      H1729   0.990       .  S
O1705      H1725   0.990       .  S
Zr1706     O1707   2.436       .  S
Zr1706     O1708   2.436       .  S
Zr1706     O1712   2.383       .  S
Zr1706     O1711   2.371       .  S
Zr1706     O1716   2.382       .  S
Zr1706     O1714   2.383       .  S
O1707      H1723   0.990       .  S
O1708      H1722   0.990       .  S
O1708      H1732   0.991       .  S
Zr1709     O1712   2.394       .  S
Zr1709     O1714   2.394       .  S
Zr1709     O1715   2.389       .  S
Zr1710     O1711   2.391       .  S
Zr1710     O1713   2.381       .  S
Zr1710     O1716   2.385       .  S
O1711      H1719   0.966       .  S
O1714      H1718   0.966       .  S
O1715      H1720   0.966       .  S
C1733      C1734   1.404       .  A
C1733      C1738   1.417       .  A
C1734      C1735   1.403       .  A
C1734      H1743   1.084       .  S
C1735      C1736   1.417       .  A
C1735      S1739   1.804       .  S
C1736      C1737   1.403       .  A
C1737      C1738   1.404       .  A
C1737      H1744   1.083       .  S
C1738      S1740   1.797       .  S
S1739      H1742   1.407       .  S
S1740      H1741   1.407       .  S
C1745      C1746   1.407       .  A
C1745      C1750   1.411       .  A
C1746      C1747   1.401       .  A
C1746      H1755   1.083       .  S
C1747      C2016   1.410       .  A
C1747      S1751   1.804       .  S
C1748      C2015   1.408       .  A
C1748      C1749   1.403       .  A
C1749      C2018   1.401       .  A
C1749      H1756   1.084       .  S
C1750      C2017   1.399       .  A
C1750      S1752   1.800       .  S
S1751      H2022   1.405   1_554  S
S1752      H1753   1.406       .  S
H1754      S2019   1.406       .  S
C1757      C1758   1.401       .  A
C1757      C1762   1.417       .  A
C1758      C1759   1.395       .  A
C1758      H1767   1.084       .  S
C1759      C1760   1.418       .  A
C1759      S1763   1.805       .  S
C1760      C1761   1.409       .  A
C1761      C1762   1.416       .  A
C1761      H1768   1.082       .  S
C1762      S1764   1.805   1_554  S
S1763      H1766   1.406       .  S
S1764      H1765   1.407       .  S
C1769      C1770   1.402   1_556  A
C1769      C2042   1.410       .  A
C1770      C1771   1.397       .  A
C1770      H1779   1.084       .  S
C1771      C1772   1.415   1_554  A
C1771      S1775   1.805       .  S
C1772      C2041   1.405       .  A
C1772      C1920   1.491       .  S
C1773      C2040   1.404       .  A
C1773      C1774   1.404       .  A
C1773      H1780   1.084       .  S
C1774      C2037   1.415       .  A
C1774      S1776   1.802       .  S
S1775      H1778   1.407       .  S
S1776      H1777   1.407       .  S
C1781      C1782   1.400       .  A
C1781      C1786   1.412       .  A
C1782      C1783   1.400       .  A
C1782      H1791   1.084       .  S
C1783      C1784   1.415       .  A
C1783      S1787   1.801       .  S
C1784      C1785   1.401       .  A
C1785      C1786   1.394       .  A
C1785      H1792   1.084       .  S
C1786      S1788   1.806       .  S
S1787      H1790   1.406       .  S
S1788      H1789   1.400       .  S
C1793      C1794   1.401       .  A
C1793      C1798   1.420       .  A
C1794      C2063   1.405       .  A
C1794      H1803   1.082       .  S
C1795      C2062   1.398       .  A
C1795      C1796   1.415       .  A
C1795      S1799   1.802       .  S
C1796      C2065   1.405       .  A
C1797      C2064   1.408       .  A
C1797      C1798   1.414       .  A
C1797      H1804   1.082       .  S
C1798      S1800   1.801       .  S
S1799      H1802   1.406       .  S
S1800      H1801   1.406       .  S
C1805      C2074   1.405       .  A
C1805      C1810   1.421       .  A
C1806      C2073   1.400   1_554  A
C1806      C1807   1.402       .  A
C1806      H1815   1.083       .  S
C1807      C1808   1.420       .  A
C1807      S1811   1.806       .  S
C1808      C2077   1.404   1_554  A
C1809      C2076   1.405       .  A
C1809      C1810   1.410       .  A
C1809      H1816   1.084       .  S
C1810      S1812   1.804       .  S
S1811      H1814   1.407       .  S
C1817      C1818   1.399       .  A
C1817      C1822   1.404       .  A
C1818      C1819   1.405       .  A
C1818      H1827   1.078       .  S
C1819      C1820   1.417       .  A
C1819      S1823   1.804       .  S
C1820      C1821   1.410       .  A
C1821      C1822   1.394       .  A
C1821      H1828   1.081       .  S
C1822      S1824   1.810       .  S
S1823      H1826   1.406       .  S
S1824      H1825   1.407       .  S
C1829      C1830   1.407       .  A
C1829      C1834   1.415       .  A
C1830      C1831   1.406       .  A
C1830      H1839   1.084       .  S
C1831      C1832   1.417       .  A
C1831      S2103   1.799       .  S
C1832      N1884   1.454       .  S
C1832      C1833   1.408       .  A
C1833      C1834   1.407       .  A
C1833      H1840   1.083       .  S
C1834      S1836   1.795       .  S
S1835      C2099   1.796       .  S
S1835      H1838   1.401   1_556  S
S1836      H1837   1.406       .  S
C1841      C2110   1.406       .  A
C1841      C1846   1.411       .  A
C1842      C2109   1.406       .  A
C1842      C1843   1.399       .  A
C1842      H1851   1.084       .  S
C1843      C2112   1.407       .  A
C1843      S1847   1.803       .  S
C1844      C2111   1.408       .  A
C1844      C1845   1.406       .  A
C1844      C1878   1.469       .  S
C1845      C1846   1.392       .  A
C1845      H1852   1.085       .  S
C1846      S1848   1.807       .  S
S1847      H1850   1.405       .  S
S1848      H1849   1.405       .  S
C1853      C1854   1.413       .  A
C1853      C1858   1.419       .  A
C1854      C1855   1.400       .  A
C1854      H1863   1.081       .  S
C1855      C1856   1.412       .  A
C1855      S1859   1.803       .  S
C1856      C1857   1.404       .  A
C1857      C1858   1.402       .  A
C1857      H1864   1.084       .  S
C1858      S1860   1.798       .  S
S1859      H1862   1.398       .  S
S1860      H1861   1.401       .  S
C1865      C1866   1.405       .  A
C1865      C1870   1.412       .  A
C1866      C1867   1.393       .  A
C1866      H1875   1.084       .  S
C1867      C1868   1.410       .  A
C1867      S1871   1.808       .  S
C1868      C1869   1.400       .  A
C1869      C1870   1.397       .  A
C1869      H1876   1.083       .  S
C1870      S1872   1.795       .  S
S1871      H1874   1.405       .  S
S1872      H2141   1.407       .  S
H1873      S2140   1.406       .  S
N1877      C1878   1.365       .  A
N1877      C2121   1.459       .  S
C1879      C1880   1.361       .  A
C1879      H1882   1.083       .  S
C1880      C1881   1.378       .  A
C1880      H1883   1.082       .  S
C1881      C2133   1.482       .  S
N1884      C1888   1.363       .  A
N1884      C1885   1.369       .  A
C1885      C1886   1.385       .  A
C1885      C2076   1.487       .  S
C1886      C1887   1.359       .  A
C1886      H1889   1.083       .  S
C1887      C1888   1.378       .  A
C1887      H1890   1.083       .  S
C1888      C2088   1.474       .  S
N1891      C1895   1.362       .  A
N1891      C1892   1.367       .  A
N1891      C2064   1.463       .  S
C1892      C1893   1.388       .  A
C1892      C2037   1.486       .  S
C1893      C1894   1.363       .  A
C1893      H1896   1.083       .  S
C1894      C1895   1.379       .  A
C1894      H1897   1.082       .  S
C1895      C2052   1.485       .  S
N1898      H1930   1.036       .  S
N1899      C1907   1.350   1_556  A
N1900      C1905   1.354       .  A
N1900      H1931   1.040   1_556  S
N1901      C1909   1.351       .  A
C1902      C1918   1.425   1_554  A
C1903      C1919   1.428       .  A
C1903      C1911   1.391       .  A
C1904      C1912   1.386   1_565  A
C1904      C1921   1.411       .  A
C1905      C1920   1.413       .  A
C1905      C1913   1.387       .  A
C1906      C1918   1.414       .  A
C1906      C1914   1.387   1_556  A
C1907      C1921   1.408   1_554  A
C1907      C1915   1.384       .  A
C1908      C1916   1.388   1_455  A
C1909      C1920   1.417       .  A
C1910      H1922   1.082       .  S
C1911      H1923   1.081       .  S
C1912      H1924   1.083   1_545  S
C1913      H1925   1.082       .  S
C1914      H1926   1.082       .  S
C1915      H1927   1.082       .  S
C1916      C1917   1.375       .  A
C1916      H1928   1.082   1_655  S
C1917      H1929   1.082       .  S
C1918      C2073   1.494       .  S
C1919      C2025   1.497       .  S
C1921      C2109   1.484   1_556  S
N1932      C1936   1.356       .  A
N1932      C1933   1.361       .  A
N1932      C2013   1.440       .  S
C1933      C1934   1.387       .  A
C1933      C2028   1.493       .  S
C1934      C1935   1.375       .  A
C1934      H1937   1.082       .  S
C1935      C1936   1.379       .  A
C1935      H1938   1.082       .  S
C1936      C2004   1.478       .  S
O1939     Zr1951   2.431       .  S
O1939      C1941   1.286       .  A
O1940     Zr1977   2.411       .  S
O1940      C1941   1.284       .  A
C1941      C2136   1.457       .  S
O1942     Zr1954   2.453       .  S
O1942      C1944   1.291       .  A
O1943     Zr1978   2.398       .  S
O1943      C1944   1.281       .  A
C1944      C2085   1.473       .  S
O1945     Zr1954   2.453       .  S
O1945      C1947   1.291       .  A
O1946     Zr1977   2.462       .  S
O1946      C1947   1.293       .  A
C1947      C2097   1.505       .  S
O1948     Zr1951   2.454       .  S
O1948      C1950   1.289       .  A
O1949     Zr1978   2.448       .  S
O1949      C1950   1.291       .  A
C1950      C2124   1.489       .  S
Zr1951     O1952   2.433       .  S
Zr1951     O1953   2.437       .  S
Zr1951     O1957   2.379       .  S
Zr1951     O1958   2.368       .  S
Zr1951     O1981   2.358       .  S
Zr1951     O1983   2.370       .  S
O1952      H1995   0.990       .  S
O1953      H1994   0.990       .  S
O1953      H1998   0.990       .  S
Zr1954     O1955   2.435       .  S
Zr1954     O1956   2.434       .  S
Zr1954     O1958   2.368       .  S
Zr1954     O1957   2.370       .  S
Zr1954     O1982   2.368       .  S
Zr1954     O1984   2.368       .  S
O1955      H1996   0.990       .  S
O1955      H1999   0.990       .  S
O1956      H1989   0.990       .  S
O1957     Zr1977   2.387       .  S
O1958     Zr1978   2.383       .  S
O1958      H1985   0.964       .  S
O1959     Zr1971   2.451       .  S
O1959      C1961   1.289       .  A
O1960     Zr1978   2.397       .  S
O1960      C1961   1.281       .  A
C1961      C2049   1.459       .  S
O1962     Zr1974   2.431       .  S
O1962      C1964   1.285       .  A
O1963     Zr1977   2.439       .  S
O1963      C1964   1.289       .  A
C1964      C2016   1.470   1_556  S
O1965     Zr1974   2.433       .  S
O1965      C1967   1.286       .  A
O1966     Zr1978   2.441       .  S
O1966      C1967   1.289       .  A
C1967      C2001   1.472       .  S
O1968     Zr1971   2.451       .  S
O1968      C1970   1.289       .  A
O1969     Zr1977   2.440       .  S
O1969      C1970   1.290       .  A
C1970      C2061   1.482       .  S
Zr1971     O1972   2.436       .  S
Zr1971     O1973   2.437       .  S
Zr1971     O1979   2.373       .  S
Zr1971     O1980   2.377       .  S
Zr1971     O1983   2.377       .  S
Zr1971     O1981   2.375       .  S
O1972      H1992   0.990       .  S
O1972      H1997   0.990       .  S
O1973      H1993   0.990       .  S
Zr1974     O1975   2.434       .  S
Zr1974     O1976   2.436       .  S
Zr1974     O1980   2.376       .  S
Zr1974     O1979   2.377       .  S
Zr1974     O1984   2.371       .  S
Zr1974     O1982   2.374       .  S
O1975      H1991   0.990       .  S
O1976      H1990   0.990       .  S
O1976      H2000   0.990       .  S
Zr1977     O1980   2.386       .  S
Zr1977     O1982   2.382       .  S
Zr1977     O1983   2.395       .  S
Zr1978     O1979   2.390       .  S
Zr1978     O1981   2.378       .  S
Zr1978     O1984   2.377       .  S
O1979      H1987   0.966       .  S
O1982      H1986   0.966       .  S
O1983      H1988   0.966       .  S
C2001      C2002   1.402       .  A
C2001      C2006   1.414       .  A
C2002      C2003   1.402       .  A
C2002      H2011   1.084       .  S
C2003      C2004   1.414       .  A
C2003      S2007   1.807       .  S
C2004      C2005   1.402       .  A
C2005      C2006   1.400       .  A
C2005      H2012   1.084       .  S
C2006      S2008   1.807       .  S
S2007      H2010   1.402       .  S
S2008      H2009   1.402       .  S
C2013      C2014   1.404       .  A
C2013      C2018   1.411       .  A
C2014      C2015   1.395       .  A
C2014      H2023   1.080       .  S
C2015      S2019   1.806       .  S
C2016      C2017   1.403       .  A
C2017      H2024   1.084   1_554  S
C2018      S2020   1.801       .  S
S2020      H2021   1.405       .  S
C2025      C2026   1.401       .  A
C2025      C2030   1.412       .  A
C2026      C2027   1.396       .  A
C2026      H2035   1.084       .  S
C2027      C2028   1.417       .  A
C2027      S2031   1.804       .  S
C2028      C2029   1.408       .  A
C2029      C2030   1.408       .  A
C2029      H2036   1.081       .  S
C2030      S2032   1.806       .  S
S2031      H2034   1.407       .  S
S2032      H2033   1.407       .  S
C2037      C2038   1.405       .  A
C2038      C2039   1.399       .  A
C2038      H2047   1.081       .  S
C2039      C2040   1.415       .  A
C2039      S2043   1.805       .  S
C2041      C2042   1.401       .  A
C2041      H2048   1.084       .  S
C2042      S2044   1.802       .  S
S2043      H2046   1.405       .  S
S2044      H2045   1.407       .  S
C2049      C2050   1.398       .  A
C2049      C2054   1.408       .  A
C2050      C2051   1.401       .  A
C2050      H2059   1.083       .  S
C2051      C2052   1.416       .  A
C2051      S2055   1.803       .  S
C2052      C2053   1.407       .  A
C2053      C2054   1.393       .  A
C2053      H2060   1.084       .  S
C2054      S2056   1.805       .  S
S2055      H2058   1.407       .  S
S2056      H2057   1.402       .  S
C2061      C2062   1.401       .  A
C2061      C2066   1.416       .  A
C2062      H2071   1.084       .  S
C2063      C2064   1.423       .  A
C2063      S2067   1.798       .  S
C2065      C2066   1.408       .  A
C2065      H2072   1.081       .  S
C2066      S2068   1.803       .  S
S2067      H2070   1.406       .  S
S2068      H2069   1.405       .  S
C2073      C2078   1.411       .  A
C2074      C2075   1.397       .  A
C2074      H2083   1.082       .  S
C2075      C2076   1.413       .  A
C2075      S2079   1.810       .  S
C2077      C2078   1.402       .  A
C2077      H2084   1.084       .  S
C2078      S2080   1.802       .  S
S2079      H2082   1.407       .  S
C2085      C2086   1.407       .  A
C2085      C2090   1.408       .  A
C2086      C2087   1.403       .  A
C2086      H2095   1.082       .  S
C2087      C2088   1.407       .  A
C2087      S2091   1.806       .  S
C2088      C2089   1.403       .  A
C2089      C2090   1.394       .  A
C2089      H2096   1.083       .  S
C2090      S2092   1.808       .  S
S2091      H2094   1.407       .  S
S2092      H2093   1.407       .  S
C2097      C2098   1.409       .  A
C2097      C2102   1.417       .  A
C2098      C2099   1.409       .  A
C2098      H2107   1.084       .  S
C2099      C2100   1.421   1_556  A
C2100      C2101   1.415       .  A
C2101      C2102   1.405   1_554  A
C2101      H2108   1.081       .  S
C2102      S2104   1.801       .  S
S2103      H2106   1.407       .  S
S2104      H2105   1.395       .  S
C2109      C2114   1.411   1_554  A
C2110      C2111   1.400       .  A
C2110      H2119   1.084       .  S
C2111      S2115   1.804       .  S
C2112      C2113   1.407   1_554  A
C2113      C2114   1.394       .  A
C2113      H2120   1.084       .  S
C2114      S2116   1.805       .  S
S2115      H2118   1.402       .  S
S2116      H2117   1.405       .  S
C2121      C2122   1.409       .  A
C2121      C2126   1.422       .  A
C2122      C2123   1.400       .  A
C2122      H2131   1.083       .  S
C2123      C2124   1.411       .  A
C2123      S2127   1.801       .  S
C2124      C2125   1.405       .  A
C2125      C2126   1.408       .  A
C2125      H2132   1.083       .  S
C2126      S2128   1.800       .  S
S2127      H2130   1.405       .  S
S2128      H2129   1.400       .  S
C2133      C2134   1.404       .  A
C2133      C2138   1.415       .  A
C2134      C2135   1.391       .  A
C2134      H2143   1.083       .  S
C2135      C2136   1.409       .  A
C2135      S2139   1.811       .  S
C2136      C2137   1.400       .  A
C2137      C2138   1.399       .  A
C2137      H2144   1.083       .  S
C2138      S2140   1.799       .  S
S2139      H2142   1.403       .  S
