geometry optimzed in LAMMPS
_audit_creation_date              2020-11-30 
_audit_creation_method            'lammps2cif' 
_symmetry_space_group_name_H-M    'P1' 
_symmetry_Int_Tables_number       1 
_symmetry_cell_setting            triclinic 
loop_ 
_symmetry_equiv_pos_as_xyz 
  x,y,z 
_cell_length_a                    37.95240550233135 
_cell_length_b                    52.36173267858782 
_cell_length_c                    99.88359873992245 
_cell_angle_alpha                 89.71085423329612 
_cell_angle_beta                  90.28319456884189 
_cell_angle_gamma                 90.22258625138389 
loop_ 
_atom_site_label 
_atom_site_type_symbol 
_atom_site_fract_x 
_atom_site_fract_y 
_atom_site_fract_z 
_atom_site_charge 
N1          N  0.25327898  0.07081186  0.29053070    -0.08100
N2          N  0.24125525  0.08980975  0.28307832    -0.60220
N3          N  0.27167135  0.01357284  0.30527125    -0.07780
N4          N  0.26364764  0.48903600  0.30526227    -0.62340
N5          N  0.24789900  0.02664562  0.31176088    -0.07370
N6          N  0.22322882  0.01118633  0.31650055    -0.60190
N7          N  0.27685804  0.05763876  0.28391581    -0.07050
N8          N  0.28126916  0.06763132  0.27182798    -0.62700
C9          C  0.25861559  0.08755920  0.27136375     0.94080
C10         C  0.23350556  0.48773892  0.31238609     0.93860
N11         N  0.38063239  0.02208590  0.31267778    -0.08280
N12         N  0.40356632  0.50562639  0.31756310    -0.60790
N13         N  0.35627701  0.05132726  0.28401720    -0.06400
N14         N  0.36225749  0.04440567  0.27167043    -0.62050
N15         N  0.38516479  0.05975669  0.28984718    -0.08310
N16         N  0.41208335  0.05672844  0.28149669    -0.61060
N17         N  0.35537371  0.01019565  0.30602459    -0.06040
N18         N  0.36118924  0.48524637  0.30614712    -0.62130
Mn19       Mn  0.31461242  0.03267678  0.29473756     1.18440
C20         C  0.39114883  0.48270459  0.31353317     0.96160
C21         C  0.39686478  0.04781639  0.27002283     0.96830
N22         N  0.25238681  0.06790093  0.33415100    -0.08330
N23         N  0.22654865  0.06088284  0.34210121    -0.64640
N24         N  0.27884596  0.12205334  0.32039184    -0.07130
N25         N  0.27123681  0.14654896  0.32179239    -0.65310
N26         N  0.25396589  0.11050515  0.31347949    -0.07840
N27         N  0.22929626  0.12688283  0.30987147    -0.64900
N28         N  0.27794951  0.07893303  0.34099264    -0.06730
N29         N  0.26999877  0.07947699  0.35381061    -0.65590
Mn30       Mn  0.25094736  0.06871384  0.31240616     1.10660
C31         C  0.23807142  0.06794170  0.35431432     0.97380
C32         C  0.24045239  0.14934158  0.31501801     0.97460
N33         N  0.38620353  0.10651225  0.31227881    -0.07850
N34         N  0.41116702  0.12245800  0.30820857    -0.63220
N35         N  0.36233458  0.07840962  0.34115795    -0.07160
N36         N  0.37170709  0.08106321  0.35384309    -0.59950
N37         N  0.38703654  0.06634899  0.33449513    -0.08470
N38         N  0.41378306  0.06084830  0.34257595    -0.62790
N39         N  0.36246350  0.11901383  0.31929341    -0.07460
N40         N  0.37074997  0.14339926  0.32007185    -0.59970
Mn41       Mn  0.38577533  0.06386659  0.31224072     1.20190
Mn42       Mn  0.32044884  0.09984113  0.33070206     1.10090
Cl43       Cl  0.31829294  0.06627494  0.31265124    -0.87940
C44         C  0.40091802  0.14542570  0.31306753     0.94390
C45         C  0.40369225  0.06984574  0.35466720     0.94190
N46         N  0.02577826  0.37249321  0.31022672    -0.08100
N47         N  0.50043660  0.38748528  0.30564629    -0.60220
N48         N  0.10681574  0.37211358  0.32279213    -0.07780
N49         N  0.12987855  0.38899321  0.32727472    -0.62340
N50         N  0.10726468  0.37132143  0.30960459    -0.07370
N51         N  0.13089747  0.38757102  0.30487647    -0.60190
N52         N  0.02636473  0.37266693  0.32334266    -0.07050
N53         N  0.50195148  0.38812424  0.32802615    -0.62700
C54         C  0.48569239  0.39704652  0.31686279     0.94080
C55         C  0.14500098  0.39825871  0.31601733     0.93860
N56         N  0.10695162  0.30437639  0.34579998    -0.08280
N57         N  0.13141228  0.29662123  0.35442489    -0.60790
N58         N  0.02570528  0.32885269  0.34448863    -0.06400
N59         N  0.49807576  0.33756677  0.35090965    -0.62050
N60         N  0.02594424  0.30373238  0.34468013    -0.08310
N61         N  0.49870203  0.29479929  0.35141098    -0.61060
N62         N  0.10651462  0.32949789  0.34523935    -0.06040
N63         N  0.13054063  0.33927241  0.35326185    -0.62130
Mn64       Mn  0.06648039  0.35118573  0.33430041     1.18440
C65         C  0.14607870  0.31873604  0.35889960     0.96160
C66         C  0.48145257  0.31615208  0.35509855     0.96830
N67         N  0.10292953  0.32840825  0.28559279    -0.08330
N68         N  0.10996682  0.33234734  0.27267240    -0.64640
N69         N  0.03125073  0.30773483  0.28526712    -0.07130
N70         N  0.03325267  0.30874026  0.27196752    -0.65310
N71         N  0.02165105  0.33047716  0.28941326    -0.07840
N72         N  0.01068092  0.34459410  0.27936306    -0.64900
N73         N  0.10903361  0.30423038  0.28845415    -0.06730
N74         N  0.12252180  0.29233008  0.27818583    -0.65590
Mn75       Mn  0.06492553  0.35085808  0.29865694     1.10660
C76         C  0.12281998  0.30961232  0.26832069     0.97380
C77         C  0.52076457  0.33216259  0.26839090     0.97460
N78         N  0.02638459  0.26165403  0.32218763    -0.07850
N79         N  0.50313582  0.24441640  0.32622260    -0.63220
N80         N  0.10667545  0.26152980  0.30999852    -0.07160
N81         N  0.13011657  0.24548383  0.30520107    -0.59950
N82         N  0.10743803  0.26128217  0.32316271    -0.08470
N83         N  0.13157325  0.24505611  0.32758315    -0.62790
N84         N  0.02654200  0.26298248  0.30899768    -0.07460
N85         N  0.50416143  0.24634857  0.30384461    -0.59970
Mn86       Mn  0.06686435  0.28208578  0.33438294     1.20190
Mn87       Mn  0.06793364  0.28389168  0.29829778     1.10090
Cl88       Cl  0.06687770  0.31697874  0.31647101    -0.87940
C89         C  0.48938982  0.23516148  0.31466568     0.94390
C90         C  0.14567719  0.23546346  0.31622593     0.94190
N91         N  0.02408896  0.43407022  0.21472701    -0.08100
N92         N  0.05097620  0.42297006  0.22109733    -0.60220
N93         N  0.49187357  0.38838318  0.19835222    -0.07780
N94         N  0.50038768  0.36402443  0.19980830    -0.62340
N95         N  0.01688240  0.40047900  0.19168091    -0.07370
N96         N  0.04264309  0.38485698  0.18865965    -0.60190
N97         N  0.49479558  0.42779534  0.22097387    -0.07050
N98         N  0.50164446  0.41535398  0.23210066    -0.62700
C99         C  0.03642174  0.41178514  0.23209874     0.94080
C100        C  0.03204459  0.36218227  0.19363100     0.93860
N101        N  0.38388380  0.40566086  0.19334610    -0.08280
N102        N  0.35821697  0.39065833  0.18898202    -0.60790
N103        N  0.41596779  0.43581801  0.22108789    -0.06400
N104        N  0.42437835  0.44732804  0.23247086    -0.62050
N105        N  0.39185036  0.44914562  0.21465138    -0.08310
N106        N  0.38368501  0.46972965  0.22153746    -0.61060
N107        N  0.40838936  0.39217197  0.19931546    -0.06040
N108        N  0.40030384  0.36764009  0.19905422    -0.62130
Mn109      Mn  0.45208128  0.41062571  0.20993314     1.18440
C110        C  0.36903909  0.36693154  0.19251448     0.96160
C111        C  0.40392368  0.46842253  0.23266168     0.96830
N112        N  0.02207552  0.44613552  0.17054843    -0.08330
N113        N  0.04773186  0.44014397  0.16222700    -0.64640
N114        N  0.99963065  0.99806531  0.18710931    -0.07130
N115        N  0.00779857  0.02259916  0.18747841    -0.65310
N116        N  0.02378943  0.48442521  0.19346753    -0.07840
N117        N  0.04917438  0.99959740  0.19797869    -0.64900
N118        N  0.49759921  0.45925767  0.16421164    -0.06730
N119        N  0.00597980  0.46221065  0.15146825    -0.65590
Mn120      Mn  0.02227522  0.44173272  0.19259964     1.10660
C121        C  0.03716613  0.45002059  0.15032068     0.97380
C122        C  0.03859649  0.02339765  0.19433346     0.97460
N123        N  0.39033107  0.98866778  0.19209719    -0.07850
N124        N  0.36415196  0.00398198  0.19504368    -0.63220
N125        N  0.41338646  0.46009922  0.16439972    -0.07160
N126        N  0.40472422  0.46212407  0.15163033    -0.59950
N127        N  0.38817485  0.44816064  0.17101637    -0.08470
N128        N  0.36186623  0.44216964  0.16297058    -0.62790
N129        N  0.41554900  0.00112969  0.18588174    -0.07460
N130        N  0.40687139  0.02542747  0.18447611    -0.59970
Mn131      Mn  0.38761692  0.44743915  0.19282801     1.20190
Mn132      Mn  0.45673158  0.48005641  0.17517027     1.10090
Cl133      Cl  0.45485266  0.44491425  0.19252295    -0.89860
C134        C  0.37486081  0.02683789  0.19036577     0.94390
C135        C  0.37272101  0.45067369  0.15090903     0.94190
N136        N  0.13864743  0.20382237  0.21639510    -0.08100
N137        N  0.11551573  0.21894081  0.22248337    -0.60220
N138        N  0.16709343  0.25053045  0.20099472    -0.07780
N139        N  0.15861195  0.27487861  0.20260702    -0.62340
N140        N  0.14204678  0.23886289  0.19417444    -0.07370
N141        N  0.11623194  0.25451394  0.19118343    -0.60190
N142        N  0.16929946  0.20658233  0.22245468    -0.07050
N143        N  0.16566758  0.21907652  0.23368837    -0.62700
C144        C  0.13308951  0.22856203  0.23325169     0.94080
C145        C  0.12685769  0.27693495  0.19631868     0.93860
N146        N  0.27425746  0.23496414  0.19340018    -0.08280
N147        N  0.29835373  0.25083776  0.18866291    -0.60790
N148        N  0.24821828  0.20185225  0.22089664    -0.06400
N149        N  0.24401300  0.19078590  0.23271875    -0.62050
N150        N  0.27117819  0.18906904  0.21378456    -0.08310
N151        N  0.28282455  0.16910839  0.22066142    -0.61060
N152        N  0.25046257  0.24747696  0.20017485    -0.06040
N153        N  0.25757103  0.27218342  0.20015196    -0.62130
Mn154      Mn  0.20923132  0.22706426  0.21114030     1.18440
C155        C  0.28743866  0.27403358  0.19286929     0.96160
C156        C  0.26595399  0.17049772  0.23253662     0.96830
N157        N  0.13574123  0.19668093  0.17232527    -0.08330
N158        N  0.11027798  0.20604600  0.16477524    -0.64640
N159        N  0.15984868  0.14248696  0.18654929    -0.07130
N160        N  0.15166518  0.11792003  0.18646080    -0.65310
N161        N  0.13694275  0.15528558  0.19385265    -0.07840
N162        N  0.11244099  0.13957511  0.19853559    -0.64900
N163        N  0.15865798  0.18428580  0.16499589    -0.06730
N164        N  0.14897334  0.18478488  0.15228489    -0.65590
Mn165      Mn  0.13786274  0.19795121  0.19418798     1.10660
C166        C  0.11885902  0.19856901  0.15231726     0.97380
C167        C  0.12220516  0.11627354  0.19400598     0.97460
N168        N  0.26928394  0.15206435  0.19018153    -0.07850
N169        N  0.29498486  0.13639309  0.19330173    -0.63220
N170        N  0.24363807  0.18358647  0.16314103    -0.07160
N171        N  0.25098184  0.18469217  0.15015235    -0.59950
N172        N  0.26868374  0.19525482  0.17000375    -0.08470
N173        N  0.29310302  0.20442086  0.16197424    -0.62790
N174        N  0.24372567  0.13998849  0.18393099    -0.07460
N175        N  0.25164226  0.11552544  0.18268056    -0.59970
Mn176      Mn  0.27179951  0.19316648  0.19187511     1.20190
Mn177      Mn  0.20120576  0.16201322  0.17427606     1.10090
Cl178      Cl  0.20492060  0.19507383  0.19275576    -0.87940
C179        C  0.28366804  0.11371351  0.18868473     0.94390
C180        C  0.28193117  0.19794606  0.14960271     0.94190
N181        N  0.38720596  0.22002476  0.08299436    -0.08100
N182        N  0.36139566  0.21044806  0.09032988    -0.60220
N183        N  0.41407845  0.27451769  0.06968016    -0.07780
N184        N  0.40546237  0.29881353  0.07071427    -0.62340
N185        N  0.39112965  0.26238316  0.06199616    -0.07370
N186        N  0.36643138  0.27824902  0.05779536    -0.60190
N187        N  0.41055746  0.23173471  0.09062201    -0.07050
N188        N  0.40075137  0.23041628  0.10332042    -0.62700
C189        C  0.37008993  0.21693822  0.10300925     0.94080
C190        C  0.37586237  0.30093197  0.06320535     0.93860
N191        N  0.02302365  0.26343946  0.06537529    -0.08280
N192        N  0.04819531  0.27891077  0.06134701    -0.60790
N193        N  0.49564318  0.23147282  0.09221349    -0.06400
N194        N  0.50196609  0.22932804  0.10520986    -0.62050
N195        N  0.02046107  0.21981761  0.08540181    -0.08310
N196        N  0.04378729  0.20947214  0.09350467    -0.61060
N197        N  0.49859069  0.27587439  0.07192631    -0.06040
N198        N  0.50719369  0.30043747  0.07257700    -0.62130
Mn199      Mn  0.45464612  0.25402763  0.08152563     1.18440
C200        C  0.03819008  0.30193400  0.06579188     0.96160
C201        C  0.03200394  0.21536820  0.10580379     0.96830
N202        N  0.39409279  0.21799332  0.03856424    -0.08330
N203        N  0.36927546  0.21307805  0.02946184    -0.64640
N204        N  0.41787504  0.16686956  0.05425113    -0.07130
N205        N  0.41013074  0.14212555  0.05402820    -0.65310
N206        N  0.39277319  0.17921084  0.06051221    -0.07840
N207        N  0.36797593  0.16360028  0.06469938    -0.64900
N208        N  0.42467018  0.21199812  0.03345425    -0.06730
N209        N  0.42195320  0.20656359  0.02076663    -0.65590
Mn210      Mn  0.39040262  0.22022320  0.06092449     1.10660
C211        C  0.38751457  0.20634445  0.01824510     0.97380
C212        C  0.37894993  0.14049902  0.06070797     0.97460
N213        N  0.02597445  0.18033055  0.06215756    -0.07850
N214        N  0.05057083  0.16444678  0.06644577    -0.63220
N215        N  0.50183809  0.21315082  0.03456869    -0.07160
N216        N  0.49751359  0.22370129  0.02262357    -0.59950
N217        N  0.02430792  0.22658846  0.04169177    -0.08470
N218        N  0.03528852  0.24667395  0.03469583    -0.62790
N219        N  0.50201711  0.16797639  0.05523593    -0.07460
N220        N  0.50979012  0.14347965  0.05450859    -0.59970
Mn221      Mn  0.02440488  0.22232915  0.06367954     1.20190
Mn222      Mn  0.46173088  0.18921819  0.04439414     1.10090
Cl223      Cl  0.45769266  0.22137842  0.06279778    -0.87940
C224        C  0.04004781  0.14147183  0.06165068     0.94390
C225        C  0.01860032  0.24452002  0.02271273     0.94190
N226        N  0.13874360  0.46937621  0.08320234    -0.08100
N227        N  0.11366543  0.45944783  0.09075405    -0.60220
N228        N  0.16419617  0.02400094  0.06987708    -0.07780
N229        N  0.15546896  0.04827327  0.07099488    -0.62340
N230        N  0.14107951  0.01186769  0.06225128    -0.07370
N231        N  0.11618303  0.02771878  0.05818628    -0.60190
N232        N  0.16272600  0.48076489  0.09068294    -0.07050
N233        N  0.15434400  0.47866287  0.10349895    -0.62700
C234        C  0.12373839  0.46519744  0.10338877     0.94080
C235        C  0.12563491  0.05039688  0.06361138     0.93860
N236        N  0.27307249  0.01357845  0.06477271    -0.08280
N237        N  0.29814836  0.02919497  0.06082707    -0.60790
N238        N  0.24732641  0.48089831  0.09165511    -0.06400
N239        N  0.25414957  0.47818986  0.10459028    -0.62050
N240        N  0.27204911  0.46975827  0.08457116    -0.08310
N241        N  0.29598985  0.45941822  0.09239233    -0.61060
N242        N  0.24883372  0.02576000  0.07155520    -0.06040
N243        N  0.25740725  0.05029602  0.07241011    -0.62130
Mn244      Mn  0.20569770  0.50354325  0.08139080     1.18440
C245        C  0.28823910  0.05204301  0.06554279     0.96160
C246        C  0.28454435  0.46461158  0.10480896     0.96830
N247        N  0.14327523  0.46724534  0.03869382    -0.08330
N248        N  0.11845274  0.46049441  0.02991756    -0.64640
N249        N  0.16817353  0.41660130  0.05402674    -0.07130
N250        N  0.16046789  0.39183913  0.05367972    -0.65310
N251        N  0.14341475  0.42870200  0.06059940    -0.07840
N252        N  0.11893753  0.41293432  0.06489161    -0.64900
N253        N  0.17402970  0.46246779  0.03337968    -0.06730
N254        N  0.17105490  0.45649530  0.02076713    -0.65590
Mn255      Mn  0.14064728  0.46964685  0.06108892     1.10660
C256        C  0.13660426  0.45423130  0.01860817     0.97380
C257        C  0.12971556  0.38996179  0.06063712     0.97460
N258        N  0.27647280  0.43065067  0.06133447    -0.07850
N259        N  0.30113037  0.41484739  0.06561943    -0.63220
N260        N  0.25111241  0.46347683  0.03400215    -0.07160
N261        N  0.24657478  0.47397153  0.02205798    -0.59950
N262        N  0.27384253  0.47685873  0.04101368    -0.08470
N263        N  0.28486716  0.49683790  0.03396896    -0.62790
N264        N  0.25228156  0.41820907  0.05458482    -0.07460
N265        N  0.25994748  0.39368820  0.05396157    -0.59970
Mn266      Mn  0.27474873  0.47252002  0.06290144     1.20190
Mn267      Mn  0.21152024  0.43942890  0.04402528     1.10090
Cl268      Cl  0.20787417  0.47129404  0.06263358    -0.87940
C269        C  0.29040530  0.39181441  0.06099329     0.94390
C270        C  0.26787960  0.49467966  0.02205747     0.94190
N271        N  0.99754678  0.34460787  0.96462102    -0.08100
N272        N  0.98646443  0.32479134  0.97179134    -0.60220
N273        N  0.01955293  0.40281070  0.95068067    -0.07780
N274        N  0.01188869  0.42732751  0.95137551    -0.62340
N275        N  0.99522575  0.39040332  0.94397523    -0.07370
N276        N  0.47045087  0.40624370  0.93981922    -0.60190
N277        N  0.02055890  0.35796133  0.97153095    -0.07050
N278        N  0.02519241  0.34761397  0.98351236    -0.62700
C279        C  0.00367755  0.32701721  0.98366240     0.94080
C280        C  0.98127802  0.42925816  0.94445189     0.93860
N281        N  0.12827565  0.39159796  0.94446718    -0.08280
N282        N  0.15297975  0.40728912  0.94027771    -0.60790
N283        N  0.09781292  0.35884544  0.97199835    -0.06400
N284        N  0.10091476  0.36466095  0.98462521    -0.62050
N285        N  0.12841517  0.35358649  0.96668777    -0.08310
N286        N  0.15342887  0.35958445  0.97553546    -0.61060
N287        N  0.10355156  0.40381961  0.95101985    -0.06040
N288        N  0.11140739  0.42851818  0.95140426    -0.62130
Mn289      Mn  0.06028878  0.38162814  0.96130253     1.18440
C290        C  0.14225899  0.43028629  0.94454468     0.96160
C291        C  0.13542776  0.36606981  0.98684929     0.96830
N292        N  0.99949392  0.35043264  0.92087072    -0.08330
N293        N  0.47537938  0.35975927  0.91274018    -0.64640
N294        N  0.02223436  0.29492536  0.93459016    -0.07130
N295        N  0.01358983  0.27042289  0.93384744    -0.65310
N296        N  0.99779255  0.30736300  0.94112124    -0.07840
N297        N  0.97244423  0.29192487  0.94502108    -0.64900
N298        N  0.02446028  0.33886771  0.91409535    -0.06730
N299        N  0.01775783  0.34029762  0.90112594    -0.65590
Mn300      Mn  0.99652557  0.34843971  0.94263114     1.10660
C301        C  0.98719923  0.35355417  0.90048391     0.97380
C302        C  0.98249333  0.26893894  0.94052310     0.97460
N303        N  0.13012306  0.30838380  0.94365614    -0.07850
N304        N  0.15502413  0.29256408  0.94772723    -0.63220
N305        N  0.10891898  0.33793818  0.91490369    -0.07160
N306        N  0.11818732  0.33738541  0.90215345    -0.59950
N307        N  0.13336940  0.34951702  0.92207625    -0.08470
N308        N  0.15978589  0.35684722  0.91432530    -0.62790
N309        N  0.10657939  0.29610595  0.93630487    -0.07460
N310        N  0.11497614  0.27176302  0.93536731    -0.59970
Mn311      Mn  0.13101185  0.35055452  0.94428958     1.20190
Mn312      Mn  0.06555520  0.31641306  0.92462754     1.10090
Cl313      Cl  0.06345290  0.34936042  0.94303671    -0.87940
C314        C  0.14506947  0.26975878  0.94258950     0.94390
C315        C  0.14986159  0.34939884  0.90188961     0.94190
N316        N  0.24709502  0.09468634  0.96415813    -0.08100
N317        N  0.23582474  0.07494781  0.97132758    -0.60220
N318        N  0.26916789  0.15267892  0.95018701    -0.07780
N319        N  0.26141322  0.17716831  0.95086212    -0.62340
N320        N  0.24495020  0.14020908  0.94345801    -0.07370
N321        N  0.22012744  0.15598736  0.93927361    -0.60190
N322        N  0.27002619  0.10805526  0.97109376    -0.07050
N323        N  0.27444364  0.09778875  0.98309986    -0.62700
C324        C  0.25285111  0.07723672  0.98322377     0.94080
C325        C  0.23085597  0.17902573  0.94390879     0.93860
N326        N  0.37779936  0.14193102  0.94415348    -0.08280
N327        N  0.40247172  0.15768336  0.94001572    -0.60790
N328        N  0.34735839  0.10907809  0.97175303    -0.06400
N329        N  0.35028030  0.11562212  0.98428799    -0.62050
N330        N  0.37819753  0.10444586  0.96646390    -0.08310
N331        N  0.40293002  0.11183479  0.97513670    -0.61060
N332        N  0.35297743  0.15406054  0.95069239    -0.06040
N333        N  0.36069174  0.17878034  0.95109976    -0.62130
Mn334      Mn  0.30981368  0.13170764  0.96092906     1.18440
C335        C  0.39159967  0.18063630  0.94428366     0.96160
C336        C  0.38469494  0.11833099  0.98638529     0.96830
N337        N  0.24977350  0.10009729  0.92048993    -0.08330
N338        N  0.22581858  0.10951437  0.91233259    -0.64640
N339        N  0.27264237  0.04470034  0.93436148    -0.07130
N340        N  0.26421611  0.02013745  0.93373265    -0.65310
N341        N  0.24806323  0.05713521  0.94082206    -0.07840
N342        N  0.22287393  0.04163446  0.94480277    -0.64900
N343        N  0.27479224  0.08851113  0.91375824    -0.06730
N344        N  0.26825747  0.08999347  0.90077582    -0.65590
Mn345      Mn  0.24648294  0.09825371  0.94220525     1.10660
C346        C  0.23774667  0.10331728  0.90009778     0.97380
C347        C  0.23313106  0.01861320  0.94042064     0.97460
N348        N  0.38042367  0.05874344  0.94357684    -0.07850
N349        N  0.40537002  0.04304294  0.94775449    -0.63220
N350        N  0.35917400  0.08798606  0.91470702    -0.07160
N351        N  0.36842429  0.08763660  0.90195138    -0.59950
N352        N  0.38340742  0.09975789  0.92189559    -0.08470
N353        N  0.40965018  0.10743978  0.91415722    -0.62790
N354        N  0.35705085  0.04629556  0.93622098    -0.07460
N355        N  0.36560399  0.02196677  0.93539360    -0.59970
Mn356      Mn  0.38090693  0.10096565  0.94408667     1.20190
Mn357      Mn  0.31593881  0.06628995  0.92440755     1.10090
Cl358      Cl  0.31338995  0.09938545  0.94273913    -0.87940
C359        C  0.39561480  0.02013384  0.94268003     0.94390
C360        C  0.39985881  0.09998647  0.90171101     0.94190
N361        N  0.14116333  0.08800762  0.42038639    -0.08100
N362        N  0.16418723  0.07704167  0.41259124    -0.60220
N363        N  0.11970883  0.14402113  0.43336572    -0.07780
N364        N  0.12853218  0.16853223  0.43252340    -0.62340
N365        N  0.14409552  0.13152926  0.44007374    -0.07370
N366        N  0.16955840  0.14691144  0.44395642    -0.60190
N367        N  0.11640613  0.09945662  0.41332338    -0.07050
N368        N  0.12230196  0.09639773  0.40039154    -0.62700
C369        C  0.15216549  0.08223826  0.40020593     0.94080
C370        C  0.15971496  0.16994742  0.43929289     0.93860
N371        N  0.01225179  0.13076490  0.44281217    -0.08280
N372        N  0.48764748  0.14668589  0.44683761    -0.60790
N373        N  0.03202921  0.10013938  0.41429762    -0.06400
N374        N  0.02317959  0.09839487  0.40147729    -0.62050
N375        N  0.00814699  0.08875440  0.42179460    -0.08310
N376        N  0.48267302  0.07919174  0.41423837    -0.61060
N377        N  0.03528491  0.14285733  0.43516803    -0.06040
N378        N  0.02682785  0.16718177  0.43398846    -0.62130
Mn379      Mn  0.07578269  0.12229826  0.42361719     1.18440
C380        C  0.49723268  0.16935056  0.44136665     0.96160
C381        C  0.49236365  0.08515460  0.40157627     0.96830
N382        N  0.14529422  0.09388719  0.46375971    -0.08330
N383        N  0.15702468  0.11347555  0.47085683    -0.64640
N384        N  0.12202395  0.03598705  0.45017463    -0.07130
N385        N  0.12963432  0.01146909  0.45096219    -0.65310
N386        N  0.14619594  0.04840921  0.44342615    -0.07840
N387        N  0.17077502  0.03256837  0.43929952    -0.64900
N388        N  0.12271126  0.08041474  0.47078492    -0.06730
N389        N  0.11900377  0.09043230  0.48279526    -0.65590
Mn390      Mn  0.14511671  0.09034534  0.44190873     1.10660
C391        C  0.14063047  0.11094187  0.48280894     0.97380
C392        C  0.16000221  0.50955448  0.44401899     0.97460
N393        N  0.01306346  0.04761949  0.44451396    -0.07850
N394        N  0.48812307  0.03210390  0.44034032    -0.63220
N395        N  0.04546799  0.08015612  0.47163971    -0.07160
N396        N  0.04296503  0.07445739  0.48432447    -0.59950
N397        N  0.01473750  0.08593591  0.46643724    -0.08470
N398        N  0.49010218  0.08043790  0.47546835    -0.62790
N399        N  0.03810435  0.03517546  0.45090780    -0.07460
N400        N  0.03026052  0.01045547  0.45119891    -0.59970
Mn401      Mn  0.01106071  0.08861782  0.44397754     1.20190
Mn402      Mn  0.08212384  0.05717344  0.46086563     1.10090
Cl403      Cl  0.07839960  0.08959564  0.44245776    -0.87940
C404        C  0.49901470  0.50895156  0.44446049     0.94390
C405        C  0.00856815  0.07370000  0.48674933     0.94190
N406        N  0.38748407  0.33838349  0.41905506    -0.08100
N407        N  0.40619389  0.32549058  0.41036160    -0.60220
N408        N  0.36875872  0.39450691  0.43348776    -0.07780
N409        N  0.37715359  0.41910392  0.43301323    -0.62340
N410        N  0.39423045  0.38161421  0.43931899    -0.07370
N411        N  0.42006083  0.39683966  0.44301743    -0.60190
N412        N  0.36203086  0.35099407  0.41296664    -0.07050
N413        N  0.36319082  0.34716270  0.39992796    -0.62700
C414        C  0.39064282  0.33101456  0.39852240     0.94080
C415        C  0.40925571  0.42015893  0.43911874     0.93860
N416        N  0.26216500  0.38077124  0.44450972    -0.08280
N417        N  0.23743543  0.39645550  0.44873017    -0.60790
N418        N  0.27945362  0.35158254  0.41572011    -0.06400
N419        N  0.27036705  0.34974219  0.40298018    -0.62050
N420        N  0.25718859  0.33872591  0.42327147    -0.08310
N421        N  0.23290814  0.32748663  0.41578548    -0.61060
N422        N  0.28476198  0.39324749  0.43684487    -0.06040
N423        N  0.27590999  0.41748955  0.43582375    -0.62130
Mn424      Mn  0.32370367  0.37343221  0.42441779     1.18440
C425        C  0.24655500  0.41931661  0.44333570     0.96160
C426        C  0.24155803  0.33444244  0.40316106     0.96830
N427        N  0.39768014  0.34363303  0.46270110    -0.08330
N428        N  0.40899491  0.36358698  0.46965991    -0.64640
N429        N  0.37325920  0.28584117  0.44907493    -0.07130
N430        N  0.38117641  0.26138216  0.44973683    -0.65310
N431        N  0.39658642  0.29839307  0.44198071    -0.07840
N432        N  0.42093921  0.28268640  0.43751289    -0.64900
N433        N  0.37600533  0.32982847  0.46998877    -0.06730
N434        N  0.37272069  0.33991772  0.48200308    -0.65590
Mn435      Mn  0.39517283  0.34032098  0.44071977     1.10660
C436        C  0.39345247  0.36088570  0.48178561     0.97380
C437        C  0.41084024  0.25961441  0.44237278     0.97460
N438        N  0.26375206  0.29731939  0.44544749    -0.07850
N439        N  0.23859216  0.28192001  0.44133329    -0.63220
N440        N  0.29871771  0.32860017  0.47227255    -0.07160
N441        N  0.29723512  0.32262979  0.48495102    -0.59950
N442        N  0.26778820  0.33537342  0.46759709    -0.08470
N443        N  0.24387679  0.33066549  0.47699806    -0.62790
N444        N  0.28959978  0.28462222  0.45119061    -0.07460
N445        N  0.28204515  0.25983563  0.45113174    -0.59970
Mn446      Mn  0.26162142  0.33839127  0.44532906     1.20190
Mn447      Mn  0.33457822  0.30650399  0.46059682     1.10090
Cl448      Cl  0.32847948  0.33976364  0.44258901    -0.87940
C449        C  0.25012858  0.25856800  0.44483061     0.94390
C450        C  0.26310626  0.32307916  0.48792570     0.94190
N451        N  0.50143951  0.46972428  0.53851783    -0.08100
N452        N  0.02601552  0.47831300  0.53012073    -0.60220
N453        N  0.47530452  0.01842388  0.55423001    -0.07780
N454        N  0.48313072  0.04312193  0.55369171    -0.62340
N455        N  0.50006552  0.00627590  0.56094514    -0.07370
N456        N  0.02477618  0.02198651  0.56509144    -0.60190
N457        N  0.47053277  0.47393597  0.53304618    -0.07050
N458        N  0.47346862  0.48120750  0.52059270    -0.62700
C459        C  0.00776580  0.48493616  0.51878786     0.94080
C460        C  0.51400684  0.04493943  0.56063640     0.93860
N461        N  0.36714938  0.00375703  0.56072834    -0.08280
N462        N  0.34222799  0.01934560  0.56487059    -0.60790
N463        N  0.39337255  0.47262057  0.53316203    -0.06400
N464        N  0.39822974  0.46284728  0.52113774    -0.62050
N465        N  0.37048872  0.45884645  0.53986847    -0.08310
N466        N  0.35967179  0.43929761  0.53252509    -0.61060
N467        N  0.39144978  0.01654701  0.55423346    -0.06040
N468        N  0.38366906  0.04106176  0.55367912    -0.62130
Mn469      Mn  0.43254546  0.99607090  0.54371734     1.18440
C470        C  0.35298621  0.04260815  0.56045275     0.96160
C471        C  0.37694400  0.44215360  0.52076143     0.96830
N472        N  0.00541664  0.46363352  0.58312832    -0.08330
N473        N  0.03111822  0.47170440  0.59105412    -0.64640
N474        N  0.48024254  0.41036677  0.56859489    -0.07130
N475        N  0.48888471  0.38603724  0.56940218    -0.65310
N476        N  0.00361064  0.42308473  0.56137836    -0.07840
N477        N  0.02868069  0.40754177  0.55729780    -0.64900
N478        N  0.48122026  0.45154133  0.59016796    -0.06730
N479        N  0.49000913  0.45130632  0.60300906    -0.65590
Mn480      Mn  0.00362308  0.46539515  0.56092402     1.10660
C481        C  0.02109438  0.46410214  0.60344407     0.97380
C482        C  0.01896808  0.38446065  0.56227247     0.97460
N483        N  0.37157707  0.42051483  0.56305855    -0.07850
N484        N  0.34684241  0.40485162  0.55883463    -0.63220
N485        N  0.39664101  0.45120751  0.59054547    -0.07160
N486        N  0.38965511  0.45217816  0.60348078    -0.59950
N487        N  0.37156391  0.46270573  0.58363621    -0.08470
N488        N  0.34708593  0.47150654  0.59163443    -0.62790
N489        N  0.39602756  0.40817578  0.56980109    -0.07460
N490        N  0.38794043  0.38356499  0.57041971    -0.59970
Mn491      Mn  0.36922033  0.46170466  0.56182059     1.20190
Mn492      Mn  0.43856992  0.42972508  0.58016556     1.10090
Cl493      Cl  0.43624765  0.46327997  0.56197498    -0.87940
C494        C  0.35727778  0.38187215  0.56338553     0.94390
C495        C  0.35877080  0.46504553  0.60395013     0.94190
N496        N  0.25142795  0.21877012  0.53887455    -0.08100
N497        N  0.27644151  0.22662022  0.53049136    -0.60220
N498        N  0.22606420  0.26809635  0.55430979    -0.07780
N499        N  0.23409265  0.29272818  0.55363402    -0.62340
N500        N  0.25067163  0.25592974  0.56109710    -0.07370
N501        N  0.27547654  0.27162632  0.56520052    -0.60190
N502        N  0.22073440  0.22353015  0.53334022    -0.07050
N503        N  0.22412968  0.23061473  0.52087595    -0.62700
C504        C  0.25861976  0.23356728  0.51913242     0.94080
C505        C  0.26487772  0.29454251  0.56061137     0.93860
N506        N  0.11804061  0.25447342  0.56109888    -0.08280
N507        N  0.09328154  0.27024797  0.56516575    -0.60790
N508        N  0.14323215  0.22293325  0.53360494    -0.06400
N509        N  0.14757056  0.21303878  0.52159131    -0.62050
N510        N  0.12012134  0.20953294  0.54040158    -0.08310
N511        N  0.10859173  0.19011437  0.53313802    -0.61060
N512        N  0.14235223  0.26700040  0.55447277    -0.06040
N513        N  0.13472916  0.29153394  0.55375615    -0.62130
Mn514      Mn  0.18299653  0.24604028  0.54396089     1.18440
C515        C  0.10414220  0.29335208  0.56057375     0.96160
C516        C  0.12569026  0.19267353  0.52133228     0.96830
N517        N  0.25551992  0.21345818  0.58338845    -0.08330
N518        N  0.28122533  0.22164239  0.59127147    -0.64640
N519        N  0.22973404  0.16005295  0.56899209    -0.07130
N520        N  0.23814682  0.13566507  0.56979926    -0.65310
N521        N  0.25323054  0.17264239  0.56178043    -0.07840
N522        N  0.27812113  0.15697363  0.55768587    -0.64900
N523        N  0.23131115  0.20147922  0.59046817    -0.06730
N524        N  0.24007525  0.20145416  0.60330999    -0.65590
Mn525      Mn  0.25368235  0.21493350  0.56122920     1.10660
C526        C  0.27117531  0.21424171  0.60368550     0.97380
C527        C  0.26821242  0.13393924  0.56265681     0.97460
N528        N  0.12086053  0.17124741  0.56361749    -0.07850
N529        N  0.09563621  0.15586040  0.55953075    -0.63220
N530        N  0.14691832  0.20175359  0.59093052    -0.07160
N531        N  0.13994347  0.20269225  0.60386349    -0.59950
N532        N  0.12207760  0.21356699  0.58405050    -0.08470
N533        N  0.09777324  0.22255544  0.59205513    -0.62790
N534        N  0.14529984  0.15863906  0.57023112    -0.07460
N535        N  0.13675663  0.13410348  0.57085329    -0.59970
Mn536      Mn  0.11934682  0.21246409  0.56230012     1.20190
Mn537      Mn  0.18835147  0.17984156  0.58053608     1.10090
Cl538      Cl  0.18635297  0.21334779  0.56230069    -0.87940
C539        C  0.10575688  0.13275444  0.56400531     0.94390
C540        C  0.10932391  0.21587746  0.60434917     0.94190
N541        N  0.37475218  0.21938107  0.67154470    -0.08100
N542        N  0.34879622  0.22639189  0.66345684    -0.60220
N543        N  0.40033849  0.16699696  0.68684079    -0.07780
N544        N  0.39256638  0.14248006  0.68644723    -0.62340
N545        N  0.37654804  0.17954037  0.69382962    -0.07370
N546        N  0.35196209  0.16359878  0.69813486    -0.60190
N547        N  0.39928714  0.20740564  0.66475412    -0.07050
N548        N  0.39049739  0.20619960  0.65194064    -0.62700
C549        C  0.35907009  0.21828483  0.65123906     0.94080
C550        C  0.36253110  0.14054097  0.69355449     0.93860
N551        N  0.00859303  0.17702374  0.69200745    -0.08280
N552        N  0.03439698  0.16170142  0.69555118    -0.60790
N553        N  0.48385549  0.20754466  0.66449001    -0.06400
N554        N  0.49154838  0.20739305  0.65162002    -0.62050
N555        N  0.00907033  0.21910059  0.67130565    -0.08310
N556        N  0.03441646  0.22681032  0.66328625    -0.61060
N557        N  0.48414217  0.16464232  0.68532007    -0.06040
N558        N  0.49317016  0.14035777  0.68408337    -0.62130
Mn559      Mn  0.44175338  0.18619390  0.67502538     1.18440
C560        C  0.02451646  0.13886174  0.69066305     0.96160
C561        C  0.02298571  0.21966220  0.65105588     0.96830
N562        N  0.37614253  0.22717832  0.71616566    -0.08330
N563        N  0.34973143  0.23192658  0.72457697    -0.64640
N564        N  0.40524727  0.27571278  0.69928774    -0.07130
N565        N  0.39824777  0.30047438  0.69921413    -0.65310
N566        N  0.38005350  0.26326089  0.69292671    -0.07840
N567        N  0.35592883  0.27898700  0.68833426    -0.64900
N568        N  0.40556951  0.23521234  0.72169468    -0.06730
N569        N  0.40059463  0.24307925  0.73393567    -0.65590
Mn570      Mn  0.37580602  0.22198114  0.69371335     1.10660
C571        C  0.36597794  0.24111722  0.73583900     0.97380
C572        C  0.36752075  0.30214471  0.69220104     0.97460
N573        N  0.01318213  0.26002123  0.69404020    -0.07850
N574        N  0.03885173  0.27543144  0.69013101    -0.63220
N575        N  0.48320353  0.22878230  0.72157717    -0.07160
N576        N  0.47403865  0.21687527  0.73276444    -0.59950
N577        N  0.00633229  0.21502046  0.71502616    -0.08470
N578        N  0.01269587  0.19355514  0.72163646    -0.62790
N579        N  0.48874773  0.27294361  0.70020664    -0.07460
N580        N  0.49704716  0.29735767  0.70073171    -0.59970
Mn581      Mn  0.01029346  0.21821924  0.69316316     1.20190
Mn582      Mn  0.44628469  0.25377188  0.71064169     1.10090
Cl583      Cl  0.44315864  0.22003672  0.69290594    -0.87940
C584        C  0.02824672  0.29872473  0.69433724     0.94390
C585        C  0.99252727  0.19493101  0.73271648     0.94190
N586        N  0.13672196  0.09895729  0.83308530    -0.08100
N587        N  0.16201908  0.10809615  0.84075564    -0.60220
N588        N  0.11075120  0.04362153  0.82045729    -0.07780
N589        N  0.12004718  0.01939254  0.82202945    -0.62340
N590        N  0.13451691  0.05569185  0.81328522    -0.07370
N591        N  0.15999820  0.04025263  0.80975056    -0.60190
N592        N  0.11201095  0.08792172  0.84035257    -0.07050
N593        N  0.12000252  0.08957473  0.85319147    -0.62700
C594        C  0.15109772  0.10235843  0.85323993     0.94080
C595        C  0.15077786  0.01764400  0.81514719     0.93860
N596        N  0.00243985  0.05857270  0.81259243    -0.08280
N597        N  0.47758543  0.04276060  0.80841436    -0.60790
N598        N  0.02745119  0.08790729  0.84094361    -0.06400
N599        N  0.01930239  0.08757572  0.85382636    -0.62050
N600        N  0.00285323  0.09983379  0.83401971    -0.08310
N601        N  0.47755408  0.10769269  0.84204740    -0.61060
N602        N  0.02635517  0.04603691  0.81965643    -0.06040
N603        N  0.01827282  0.02153792  0.82028776    -0.62130
Mn604      Mn  0.06903059  0.06585378  0.83069665     1.18440
C605        C  0.48793746  0.01971857  0.81319718     0.96160
C606        C  0.48820167  0.10017340  0.85439804     0.96830
N607        N  0.13105336  0.09246535  0.78945913    -0.08330
N608        N  0.13772665  0.07100480  0.78301816    -0.64640
N609        N  0.11527425  0.15139154  0.80328420    -0.07130
N610        N  0.12370535  0.17583491  0.80266559    -0.65310
N611        N  0.13973334  0.13845524  0.80960251    -0.07840
N612        N  0.16541822  0.15381234  0.81354459    -0.64900
N613        N  0.10753787  0.10594192  0.78278367    -0.06730
N614        N  0.09832093  0.09381003  0.77167768    -0.65590
Mn615      Mn  0.13650500  0.09674282  0.81128282     1.10660
C616        C  0.11734922  0.07206069  0.77188611     0.97380
C617        C  0.15499043  0.17712248  0.80917715     0.97460
N618        N  0.00676972  0.14216839  0.81162630    -0.07850
N619        N  0.48304962  0.15804419  0.81619775    -0.63220
N620        N  0.02982784  0.11228341  0.78341849    -0.07160
N621        N  0.02376182  0.11820375  0.77090520    -0.59950
N622        N  0.00123655  0.10400234  0.78938433    -0.08470
N623        N  0.47415859  0.10643142  0.78091790    -0.62790
N624        N  0.03129248  0.15437580  0.80479521    -0.07460
N625        N  0.02412215  0.17914453  0.80451297    -0.59970
Mn626      Mn  0.00239528  0.10084366  0.81184853     1.20190
Mn627      Mn  0.07152769  0.13173837  0.79353962     1.10090
Cl628      Cl  0.06971847  0.09884840  0.81197336    -0.87940
C629        C  0.49405300  0.18105314  0.81181811     0.94390
C630        C  0.98922905  0.11458621  0.76924157     0.94190
N631        N  0.12473739  0.46912907  0.67137450    -0.08100
N632        N  0.09868018  0.47597427  0.66329071    -0.60220
N633        N  0.15069195  0.41676113  0.68667219    -0.07780
N634        N  0.14310331  0.39221042  0.68629188    -0.62340
N635        N  0.12680134  0.42922551  0.69363725    -0.07370
N636        N  0.10233128  0.41321802  0.69795419    -0.60190
N637        N  0.14934510  0.45723568  0.66459207    -0.07050
N638        N  0.14052694  0.45593250  0.65178156    -0.62700
C639        C  0.10898217  0.46786477  0.65107467     0.94080
C640        C  0.11306819  0.39019199  0.69339652     0.93860
N641        N  0.25890459  0.42721919  0.69184489    -0.08280
N642        N  0.28479299  0.41197160  0.69538764    -0.60790
N643        N  0.23388366  0.45770880  0.66436531    -0.06400
N644        N  0.24154963  0.45744161  0.65149488    -0.62050
N645        N  0.25910591  0.46933583  0.67114947    -0.08310
N646        N  0.28445220  0.47695248  0.66309061    -0.61060
N647        N  0.23449260  0.41476910  0.68517169    -0.06040
N648        N  0.24365413  0.39051232  0.68393276    -0.62130
Mn649      Mn  0.19192013  0.43619847  0.67490427     1.18440
C650        C  0.27502310  0.38910708  0.69050397     0.96160
C651        C  0.27298418  0.46969403  0.65087311     0.96830
N652        N  0.12598459  0.47656273  0.71599865    -0.08330
N653        N  0.09945145  0.48089651  0.72441272    -0.64640
N654        N  0.15478665  0.02542141  0.69928626    -0.07130
N655        N  0.14756973  0.05014522  0.69929704    -0.65310
N656        N  0.12973179  0.01293218  0.69286144    -0.07840
N657        N  0.10546603  0.02861001  0.68832445    -0.64900
N658        N  0.15525139  0.48474467  0.72159148    -0.06730
N659        N  0.15007122  0.49234066  0.73386777    -0.65590
Mn660      Mn  0.12581338  0.47160600  0.69353714     1.10660
C661        C  0.11547323  0.49001729  0.73573376     0.97380
C662        C  0.11684597  0.05176919  0.69228308     0.97460
N663        N  0.26285678  0.01023708  0.69404160    -0.07850
N664        N  0.28843907  0.02576645  0.69018137    -0.63220
N665        N  0.23302166  0.47865663  0.72152155    -0.07160
N666        N  0.22388100  0.46663801  0.73267910    -0.59950
N667        N  0.25624893  0.46500869  0.71494454    -0.08470
N668        N  0.26267652  0.44350122  0.72151748    -0.62790
N669        N  0.23837842  0.02302159  0.70027334    -0.07460
N670        N  0.24658248  0.04745367  0.70088459    -0.59970
Mn671      Mn  0.26034398  0.46840038  0.69304896     1.20190
Mn672      Mn  0.19593380  0.50360275  0.71064442     1.10090
Cl673      Cl  0.19333784  0.47000587  0.69289588    -0.87940
C674        C  0.27775873  0.04898041  0.69447843     0.94390
C675        C  0.24245839  0.44473679  0.73259422     0.94190
N676        N  0.38657771  0.34886208  0.83332925    -0.08100
N677        N  0.41164071  0.35806445  0.84109137    -0.60220
N678        N  0.36149061  0.29374712  0.82018387    -0.07780
N679        N  0.37089088  0.26948924  0.82143613    -0.62340
N680        N  0.38512893  0.30618948  0.81312427    -0.07370
N681        N  0.41064535  0.29096843  0.80935104    -0.60190
N682        N  0.36201653  0.33740842  0.84049659    -0.07050
N683        N  0.36989132  0.33882274  0.85335760    -0.62700
C684        C  0.40075296  0.35190768  0.85352855     0.94080
C685        C  0.40154061  0.26810573  0.81448166     0.93860
N686        N  0.25307556  0.30794936  0.81232441    -0.08280
N687        N  0.22855856  0.29204874  0.80796219    -0.60790
N688        N  0.27731148  0.33671116  0.84096769    -0.06400
N689        N  0.26920800  0.33620868  0.85385666    -0.62050
N690        N  0.25256134  0.34858819  0.83408637    -0.08310
N691        N  0.22723401  0.35624736  0.84215365    -0.61060
N692        N  0.27709107  0.29541683  0.81934813    -0.06040
N693        N  0.26938959  0.27083140  0.81976198    -0.62130
Mn694      Mn  0.31940360  0.31526502  0.83062428     1.18440
C695        C  0.23919811  0.26896046  0.81258174     0.96160
C696        C  0.23798053  0.34864210  0.85447822     0.96830
N697        N  0.38132546  0.34365595  0.78964794    -0.08330
N698        N  0.38835212  0.32239877  0.78308460    -0.64640
N699        N  0.36442308  0.40198781  0.80396796    -0.07130
N700        N  0.37246370  0.42651021  0.80352192    -0.65310
N701        N  0.38906994  0.38909047  0.81019074    -0.07840
N702        N  0.41451227  0.40454931  0.81424500    -0.64900
N703        N  0.35755557  0.35704620  0.78306540    -0.06730
N704        N  0.34847692  0.34503269  0.77190270    -0.65590
Mn705      Mn  0.38647817  0.34732339  0.81149287     1.10660
C706        C  0.36789282  0.32345791  0.77197806     0.97380
C707        C  0.40371416  0.42788509  0.81004851     0.97460
N708        N  0.25590356  0.39161911  0.81203608    -0.07850
N709        N  0.23201584  0.40724961  0.81673424    -0.63220
N710        N  0.27986928  0.36283741  0.78365624    -0.07160
N711        N  0.27404070  0.36889722  0.77114606    -0.59950
N712        N  0.25135253  0.35399626  0.78944818    -0.08470
N713        N  0.22447904  0.35609984  0.78085910    -0.62790
N714        N  0.28050816  0.40417344  0.80542255    -0.07460
N715        N  0.27327301  0.42891836  0.80542621    -0.59970
Mn716      Mn  0.25220950  0.35023347  0.81189677     1.20190
Mn717      Mn  0.32114461  0.38223180  0.79403021     1.10090
Cl718      Cl  0.31948080  0.34878091  0.81225086    -0.87940
C719        C  0.24305722  0.43046346  0.81266219     0.94390
C720        C  0.23970207  0.36469826  0.76929276     0.94190
C721        C  0.21507113  0.42496625  0.75319674    -0.15320
C722        C  0.23390873  0.42225266  0.74118839     0.06830
C723        C  0.24374334  0.39759181  0.73722934    -0.15320
C724        C  0.23801953  0.37657356  0.74567568    -0.15320
C725        C  0.22328051  0.37974394  0.75845592     0.06830
C726        C  0.20985985  0.40390158  0.76176777    -0.15320
H727        H  0.20639017  0.44365095  0.75637419     0.10810
H728        H  0.25734399  0.39465963  0.72785709     0.10810
H729        H  0.24943190  0.35838517  0.74296011     0.10810
H730        H  0.19940037  0.40720683  0.77167670     0.10810
C731        C  0.11963188  0.02493588  0.76746731    -0.15320
C732        C  0.10972923  0.04952247  0.76322734     0.06830
C733        C  0.09205713  0.05204172  0.75086180    -0.15320
C734        C  0.08768008  0.03082467  0.74237250    -0.15320
C735        C  0.10042981  0.50661204  0.74616928     0.06830
C736        C  0.11471268  0.50379168  0.75911638    -0.15320
H737        H  0.13254030  0.02213584  0.77705546     0.10810
H738        H  0.08357466  0.07067639  0.74739760     0.10810
H739        H  0.07788465  0.03393274  0.73229434     0.10810
H740        H  0.12585243  0.48563997  0.76218750     0.10810
C741        C  0.47867024  0.47328067  0.81808425    -0.15320
C742        C  0.46665049  0.49613390  0.81224285     0.06830
C743        C  0.43354593  0.99647891  0.80592394    -0.15320
C744        C  0.41286784  0.47437365  0.80541252    -0.15320
C745        C  0.42495716  0.45147686  0.81117430     0.06830
C746        C  0.45800812  0.45114462  0.81754814    -0.15320
H747        H  0.00401515  0.47250376  0.82308475     0.10810
H748        H  0.42352996  0.01386624  0.80141156     0.10810
H749        H  0.38752589  0.47517775  0.80041626     0.10810
H750        H  0.46799640  0.43374514  0.82205807     0.10810
C751        C  0.20950051  0.20023759  0.81662647    -0.15320
C752        C  0.17645815  0.20062631  0.81024002     0.06830
C753        C  0.16446595  0.22354401  0.80447720    -0.15320
C754        C  0.18513313  0.24564324  0.80505720    -0.15320
C755        C  0.21814835  0.24528572  0.81144478     0.06830
C756        C  0.23016610  0.22237771  0.81722902    -0.15320
H757        H  0.21942947  0.18281279  0.82112902     0.10810
H758        H  0.13914926  0.22439332  0.79946501     0.10810
H759        H  0.17512471  0.26306033  0.80057526     0.10810
H760        H  0.25545386  0.22158418  0.82227125     0.10810
C761        C  0.16599579  0.47264155  0.82160869    -0.15320
C762        C  0.17442098  0.49530279  0.81483365     0.06830
C763        C  0.20666722  0.99700316  0.80793539    -0.15320
C764        C  0.22972663  0.47629156  0.80758267    -0.15320
C765        C  0.22095426  0.45343748  0.81410052     0.06830
C766        C  0.18907177  0.45190677  0.82125158    -0.15320
H767        H  0.14157932  0.47089542  0.82709936     0.10810
H768        H  0.21405871  0.01435175  0.80268849     0.10810
H769        H  0.25397223  0.47798274  0.80197970     0.10810
H770        H  0.18159630  0.43447029  0.82640289     0.10810
C771        C  0.47998803  0.22664645  0.80620167    -0.15320
C772        C  0.47194222  0.20406243  0.81311622     0.06830
C773        C  0.44062276  0.20272626  0.82061965    -0.15320
C774        C  0.41744294  0.22336134  0.82099652    -0.15320
C775        C  0.42518468  0.24579522  0.81391428     0.06830
C776        C  0.45680383  0.24732079  0.80659647    -0.15320
H777        H  0.00375880  0.22815665  0.80030061     0.10810
H778        H  0.43368037  0.18551529  0.82607796     0.10810
H779        H  0.39353675  0.22175302  0.82681108     0.10810
H780        H  0.46360027  0.26450287  0.80108718     0.10810
C781        C  0.36594554  0.25521050  0.75917440    -0.15320
C782        C  0.35128756  0.25789327  0.74627989     0.06830
C783        C  0.33824968  0.28203636  0.74249636    -0.15320
C784        C  0.34253654  0.30330174  0.75097091    -0.15320
C785        C  0.36047512  0.30091149  0.76329138     0.06830
C786        C  0.37081093  0.27639657  0.76749493    -0.15320
H787        H  0.37733124  0.23712894  0.76222917     0.10810
H788        H  0.32817836  0.28505149  0.73245026     0.10810
H789        H  0.33373011  0.32187461  0.74753411     0.10810
H790        H  0.38395795  0.27367837  0.77704305     0.10810
C791        C  0.08371072  0.32185838  0.68822443    -0.15320
C792        C  0.04984923  0.32215128  0.69377674     0.06830
C793        C  0.03720526  0.34483492  0.69944697    -0.15320
C794        C  0.05806834  0.36682742  0.69960591    -0.15320
C795        C  0.09189660  0.36657324  0.69404705     0.06830
C796        C  0.10457292  0.34389781  0.68835713    -0.15320
H797        H  0.09414209  0.30459139  0.68385091     0.10810
H798        H  0.01121834  0.34557962  0.70383723     0.10810
H799        H  0.04755996  0.38408552  0.70395697     0.10810
H800        H  0.13053434  0.34321894  0.68393555     0.10810
C801        C  0.35384238  0.09432033  0.68841156    -0.15320
C802        C  0.34128964  0.11693624  0.69420559     0.06830
C803        C  0.30758611  0.11710742  0.69987954    -0.15320
C804        C  0.28674385  0.09508197  0.69973441    -0.15320
C805        C  0.29928384  0.07246425  0.69395265     0.06830
C806        C  0.33301046  0.07227170  0.68828498    -0.15320
H807        H  0.37969730  0.09368997  0.68389956     0.10810
H808        H  0.29717557  0.13431661  0.70431630     0.10810
H809        H  0.26086197  0.09574613  0.70421665     0.10810
H810        H  0.34336899  0.05506821  0.68381967     0.10810
C811        C  0.31315988  0.32380157  0.68395821    -0.15320
C812        C  0.34537618  0.32512321  0.69098924     0.06830
C813        C  0.35435816  0.34766399  0.69768627    -0.15320
C814        C  0.33118264  0.36831878  0.69758680    -0.15320
C815        C  0.29865951  0.36681522  0.69077403     0.06830
C816        C  0.28997819  0.34444534  0.68386764    -0.15320
H817        H  0.30552764  0.30660021  0.67868925     0.10810
H818        H  0.37885443  0.34913696  0.70323039     0.10810
H819        H  0.33869437  0.38545413  0.70293428     0.10810
H820        H  0.26533161  0.34288680  0.67842787     0.10810
C821        C  0.08082227  0.11807046  0.69755703    -0.15320
C822        C  0.04804238  0.11650352  0.69093121     0.06830
C823        C  0.03898471  0.09399265  0.68421710    -0.15320
C824        C  0.06207885  0.07329028  0.68430325    -0.15320
C825        C  0.09458779  0.07470413  0.69113171     0.06830
C826        C  0.10390704  0.09736710  0.69764867    -0.15320
H827        H  0.08863273  0.13530741  0.70275250     0.10810
H828        H  0.01411533  0.09237085  0.67893177     0.10810
H829        H  0.05417151  0.05598954  0.67918262     0.10810
H830        H  0.12864385  0.09892289  0.70302899     0.10810
C831        C  0.99306845  0.14777636  0.73725050    -0.15320
C832        C  0.98382784  0.17249884  0.74131020     0.06830
C833        C  0.46542839  0.17531710  0.75340639    -0.15320
C834        C  0.46008523  0.15423819  0.76195360    -0.15320
C835        C  0.97290639  0.12997019  0.75851801     0.06830
C836        C  0.98718751  0.12675064  0.74566823    -0.15320
H837        H  0.00631136  0.14478089  0.72780916     0.10810
H838        H  0.45722022  0.19406668  0.75666102     0.10810
H839        H  0.45000457  0.15756545  0.77191742     0.10810
H840        H  0.99813687  0.10846552  0.74285698     0.10810
C841        C  0.10319398  0.21889028  0.62908513    -0.15320
C842        C  0.08771993  0.21864060  0.61634194     0.06830
C843        C  0.05089136  0.21990776  0.61503474    -0.15320
C844        C  0.02968129  0.22056957  0.62635992    -0.15320
C845        C  0.04510559  0.22072318  0.63910644     0.06830
C846        C  0.08198392  0.22030407  0.64041812    -0.15320
H847        H  0.13153032  0.21789674  0.63026065     0.10810
H848        H  0.03841156  0.21953133  0.60526032     0.10810
H849        H  0.00131149  0.22081114  0.62517566     0.10810
H850        H  0.09435912  0.22016424  0.65021171     0.10810
C851        C  0.27831332  0.21722434  0.62864538    -0.15320
C852        C  0.29348101  0.21693531  0.61584711     0.06830
C853        C  0.33037822  0.21816449  0.61476756    -0.15320
C854        C  0.35171612  0.21880509  0.62626304    -0.15320
C855        C  0.33655708  0.21906915  0.63906009     0.06830
C856        C  0.29963034  0.21868738  0.64013258    -0.15320
H857        H  0.24998180  0.21629025  0.62976026     0.10810
H858        H  0.34279481  0.21780714  0.60503095     0.10810
H859        H  0.38007674  0.21903928  0.62515716     0.10810
H860        H  0.28725095  0.21866391  0.64987903     0.10810
C861        C  0.35295523  0.46871434  0.62870710    -0.15320
C862        C  0.33730069  0.46796667  0.61599348     0.06830
C863        C  0.30044207  0.46901481  0.61477365    -0.15320
C864        C  0.27940682  0.46995592  0.62614746    -0.15320
C865        C  0.29499974  0.47060116  0.63886668     0.06830
C866        C  0.33190593  0.47040124  0.64008658    -0.15320
H867        H  0.38131827  0.46791547  0.62982541     0.10810
H868        H  0.28780994  0.46827012  0.60503407     0.10810
H869        H  0.25101894  0.47001052  0.62502037     0.10810
H870        H  0.34443524  0.47063639  0.64985077     0.10810
C871        C  0.02822673  0.46664444  0.62843812    -0.15320
C872        C  0.04339983  0.46660808  0.61563468     0.06830
C873        C  0.08029934  0.46793649  0.61457702    -0.15320
C874        C  0.10162124  0.46849131  0.62608482    -0.15320
C875        C  0.08645507  0.46857150  0.63888397     0.06830
C876        C  0.04952343  0.46802480  0.63994066    -0.15320
H877        H  0.49989879  0.46561152  0.62954545     0.10810
H878        H  0.09273600  0.46775820  0.60484278     0.10810
H879        H  0.12998114  0.46884663  0.62498507     0.10810
H880        H  0.03712729  0.46784818  0.64968459     0.10810
C881        C  0.02936094  0.33858538  0.56797782    -0.15320
C882        C  0.04077902  0.36117268  0.56166900     0.06830
C883        C  0.07366490  0.36149737  0.55529044    -0.15320
C884        C  0.09461803  0.33957540  0.55514989    -0.15320
C885        C  0.08302002  0.31693588  0.56137229     0.06830
C886        C  0.05027362  0.31669769  0.56783347    -0.15320
H887        H  0.00423983  0.33780779  0.57304798     0.10810
H888        H  0.08323904  0.37869747  0.55043216     0.10810
H889        H  0.11973213  0.34029088  0.55006963     0.10810
H890        H  0.04063916  0.29951649  0.57269283     0.10810
C891        C  0.29895616  0.06583839  0.56777481    -0.15320
C892        C  0.33184990  0.06618121  0.56141334     0.06830
C893        C  0.34369766  0.08899033  0.55543682    -0.15320
C894        C  0.32287071  0.11095785  0.55570173    -0.15320
C895        C  0.28984264  0.11055320  0.56197332     0.06830
C896        C  0.27815864  0.08780692  0.56805547    -0.15320
H897        H  0.28913290  0.04852537  0.57244633     0.10810
H898        H  0.36893044  0.08981303  0.55044516     0.10810
H899        H  0.33267274  0.12826890  0.55102060     0.10810
H900        H  0.25291739  0.08696774  0.57303645     0.10810
C901        C  0.02753823  0.09080692  0.55540933    -0.15320
C902        C  0.03663168  0.06783189  0.56172528     0.06830
C903        C  0.06901814  0.06618219  0.56864589    -0.15320
C904        C  0.09192918  0.08706648  0.56921943    -0.15320
C905        C  0.08284375  0.11004090  0.56291597     0.06830
C906        C  0.05046281  0.11172959  0.55599896    -0.15320
H907        H  0.00296414  0.09253202  0.54994180     0.10810
H908        H  0.07685220  0.04862673  0.57359094     0.10810
H909        H  0.11654132  0.08529079  0.57466379     0.10810
H910        H  0.04271810  0.12930443  0.55105336     0.10810
C911        C  0.30486417  0.35950223  0.55386465    -0.15320
C912        C  0.33465405  0.35904360  0.56232933     0.06830
C913        C  0.34080549  0.33753261  0.57035944    -0.15320
C914        C  0.31743295  0.31689586  0.56998818    -0.15320
C915        C  0.28757877  0.31736751  0.56155532     0.06830
C916        C  0.28148838  0.33884428  0.55348582    -0.15320
H917        H  0.29951272  0.37592979  0.54754837     0.10810
H918        H  0.36329687  0.33681860  0.57705858     0.10810
H919        H  0.32282766  0.30047632  0.57630431     0.10810
H920        H  0.25902524  0.33952688  0.54677503     0.10810
C921        C  0.24405175  0.27890198  0.49116544    -0.15320
C922        C  0.25320624  0.30229776  0.49706937     0.06830
C923        C  0.26918973  0.30193034  0.50982719    -0.15320
C924        C  0.27601548  0.27878659  0.51645893    -0.15320
C925        C  0.26729013  0.25538989  0.51043664     0.06830
C926        C  0.25138276  0.25581776  0.49767935    -0.15320
H927        H  0.23356909  0.27838135  0.48105786     0.10810
H928        H  0.27818538  0.31959010  0.51433523     0.10810
H929        H  0.28642404  0.27923475  0.52657479     0.10810
H930        H  0.24277469  0.23815543  0.49306585     0.10810
C931        C  0.40770752  0.40513701  0.49022510    -0.15320
C932        C  0.39066648  0.38148364  0.49196871     0.06830
C933        C  0.36824526  0.37829498  0.50305862    -0.15320
C934        C  0.36298926  0.39817927  0.51216869    -0.15320
C935        C  0.38006911  0.42180468  0.51046354     0.06830
C936        C  0.40254016  0.42503437  0.49938394    -0.15320
H937        H  0.42480074  0.40834194  0.48172755     0.10810
H938        H  0.35439125  0.36042270  0.50465402     0.10810
H939        H  0.34583050  0.39492983  0.52064271     0.10810
H940        H  0.41637573  0.44292946  0.49783340     0.10810
C941        C  0.51433492  0.05334382  0.50888564    -0.15320
C942        C  0.99919605  0.05282950  0.49597220     0.06830
C943        C  0.99185637  0.02895367  0.49023420    -0.15320
C944        C  0.00010702  0.00632273  0.49706360    -0.15320
C945        C  0.01540434  0.00679280  0.50993507     0.06830
C946        C  0.52224668  0.03065567  0.51579249    -0.15320
H947        H  0.52194707  0.07141204  0.51331012     0.10810
H948        H  0.98206704  0.02776267  0.48004594     0.10810
H949        H  0.99282168  0.48825442  0.49256242     0.10810
H950        H  0.53203921  0.03177116  0.52598117     0.10810
C951        C  0.48593330  0.21476366  0.43486049    -0.15320
C952        C  0.47530600  0.19253235  0.44169012     0.06830
C953        C  0.44282360  0.19227885  0.44834233    -0.15320
C954        C  0.42147305  0.21392416  0.44826809    -0.15320
C955        C  0.43226709  0.23625125  0.44157175     0.06830
C956        C  0.46458596  0.23644459  0.43480348    -0.15320
H957        H  0.01073400  0.21541251  0.42956408     0.10810
H958        H  0.43384928  0.17533141  0.45359477     0.10810
H959        H  0.39671110  0.21325952  0.45359294     0.10810
H960        H  0.47356314  0.25343231  0.42958667     0.10810
C961        C  0.19172620  0.44209695  0.45020764    -0.15320
C962        C  0.22438375  0.44238594  0.44367630     0.06830
C963        C  0.23511116  0.46462836  0.43687745    -0.15320
C964        C  0.21377132  0.48627214  0.43673089    -0.15320
C965        C  0.18130340  0.48610048  0.44338227     0.06830
C966        C  0.17033358  0.46377045  0.45004965    -0.15320
H967        H  0.18267612  0.42512207  0.45541521     0.10810
H968        H  0.26002715  0.46532989  0.43165939     0.10810
H969        H  0.22288799  0.00323153  0.43152213     0.10810
H970        H  0.14543251  0.46313949  0.45527958     0.10810
C971        C  0.44393974  0.48782298  0.43626863    -0.15320
C972        C  0.47678655  0.48590340  0.44286235     0.06830
C973        C  0.48700309  0.46231542  0.44822440    -0.15320
C974        C  0.46473349  0.44109762  0.44706099    -0.15320
C975        C  0.43182756  0.44305842  0.44052566     0.06830
C976        C  0.42165294  0.46662610  0.43512864    -0.15320
H977        H  0.43525428  0.00582653  0.43203125     0.10810
H978        H  0.01199139  0.46031090  0.45338258     0.10810
H979        H  0.47335338  0.42309388  0.45131403     0.10810
H980        H  0.39661754  0.46865670  0.42999972     0.10810
C981        C  0.17317766  0.21622432  0.43486177    -0.15320
C982        C  0.18263530  0.19276440  0.44058100     0.06830
C983        C  0.21515472  0.19082328  0.44741193    -0.15320
C984        C  0.23763949  0.21194078  0.44859658    -0.15320
C985        C  0.22801297  0.23546853  0.44300319     0.06830
C986        C  0.19563735  0.23734955  0.43606290    -0.15320
H987        H  0.14849324  0.21825645  0.42949223     0.10810
H988        H  0.22329073  0.17291229  0.45190708     0.10810
H989        H  0.26222857  0.20994825  0.45402864     0.10810
H990        H  0.18743609  0.25529055  0.43161431     0.10810
C991        C  0.15564797  0.15496885  0.49106333    -0.15320
C992        C  0.13822328  0.13151491  0.49294298     0.06830
C993        C  0.11577431  0.12864206  0.50403076    -0.15320
C994        C  0.11084943  0.14872709  0.51302804    -0.15320
C995        C  0.12827368  0.17217619  0.51116101     0.06830
C996        C  0.15075856  0.17505913  0.50007990    -0.15320
H997        H  0.17277241  0.15789670  0.48254800     0.10810
H998        H  0.10167768  0.11089339  0.50570187     0.10810
H999        H  0.09369999  0.14578022  0.52153338     0.10810
H1000       H  0.16484650  0.19281724  0.49842545     0.10810
C1001       C  0.40759722  0.10239730  0.87678378    -0.15320
C1002       C  0.42261464  0.10195578  0.88966326     0.06830
C1003       C  0.45957211  0.10203022  0.89088545    -0.15320
C1004       C  0.48101057  0.10160900  0.87945613    -0.15320
C1005       C  0.46593617  0.10194345  0.86657429     0.06830
C1006       C  0.42901294  0.10279993  0.86537765    -0.15320
H1007       H  0.37924870  0.10234131  0.87553704     0.10810
H1008       H  0.47188888  0.10152358  0.90068617     0.10810
H1009       H  0.00934779  0.10094921  0.88068086     0.10810
H1010       H  0.41660801  0.10292003  0.85558996     0.10810
C1011       C  0.21017838  0.10546965  0.86389019    -0.15320
C1012       C  0.17331324  0.10552619  0.86512219     0.06830
C1013       C  0.15802242  0.10675799  0.87780916    -0.15320
C1014       C  0.17934386  0.10736985  0.88917813    -0.15320
C1015       C  0.21616322  0.10599843  0.88799793     0.06830
C1016       C  0.23152280  0.10532745  0.87529551    -0.15320
H1017       H  0.22244436  0.10437021  0.85414287     0.10810
H1018       H  0.12966046  0.10684036  0.87892535     0.10810
H1019       H  0.16692489  0.10775817  0.89891530     0.10810
H1020       H  0.25984982  0.10427304  0.87421430     0.10810
C1021       C  0.20960771  0.35068978  0.89101761    -0.15320
C1022       C  0.17264250  0.35099731  0.88982741     0.06830
C1023       C  0.15757191  0.35146547  0.87695688    -0.15320
C1024       C  0.17892067  0.35159096  0.86553279    -0.15320
C1025       C  0.21583378  0.35043214  0.86669343     0.06830
C1026       C  0.23097483  0.35000089  0.87956662    -0.15320
H1027       H  0.22196688  0.35013306  0.90080999     0.10810
H1028       H  0.12922076  0.35168082  0.87572991     0.10810
H1029       H  0.16645176  0.35179578  0.85575715     0.10810
H1030       H  0.25930553  0.34911127  0.88076857     0.10810
C1031       C  0.48093326  0.35592442  0.87569583    -0.15320
C1032       C  0.46550742  0.35605032  0.88839443     0.06830
C1033       C  0.42864367  0.35662776  0.88955606    -0.15320
C1034       C  0.40739500  0.35579892  0.87816118    -0.15320
C1035       C  0.42278006  0.35514851  0.86547107     0.06830
C1036       C  0.45964632  0.35586105  0.86427374    -0.15320
H1037       H  0.00929907  0.35547075  0.87462878     0.10810
H1038       H  0.41619494  0.35656079  0.89929139     0.10810
H1039       H  0.37903377  0.35528889  0.87925775     0.10810
H1040       H  0.47200970  0.35522911  0.85453111     0.10810
C1041       C  0.47153617  0.47530570  0.94991193    -0.15320
C1042       C  0.46004414  0.45280532  0.94360846     0.06830
C1043       C  0.42725891  0.45263403  0.93704550    -0.15320
C1044       C  0.40619133  0.47444912  0.93689213    -0.15320
C1045       C  0.41749969  0.99688106  0.94329433     0.06830
C1046       C  0.45043008  0.99714491  0.94976577    -0.15320
H1047       H  0.99667341  0.47596751  0.95506778     0.10810
H1048       H  0.41771012  0.43555739  0.93212034     0.10810
H1049       H  0.38104550  0.47373900  0.93174595     0.10810
H1050       H  0.45992923  0.01423734  0.95469166     0.10810
C1051       C  0.15551206  0.22413403  0.93662000    -0.15320
C1052       C  0.16692271  0.24650695  0.94305402     0.06830
C1053       C  0.19998502  0.24676114  0.94941743    -0.15320
C1054       C  0.22112999  0.22497044  0.94943778    -0.15320
C1055       C  0.20954656  0.20251572  0.94312041     0.06830
C1056       C  0.17663285  0.20234205  0.93665275    -0.15320
H1057       H  0.13025488  0.22345449  0.93155237     0.10810
H1058       H  0.20956470  0.26381339  0.95435933     0.10810
H1059       H  0.24637101  0.22563187  0.95451960     0.10810
H1060       H  0.16702796  0.18528549  0.93172359     0.10810
C1061       C  0.40433350  0.22679300  0.94890699    -0.15320
C1062       C  0.41395824  0.20365898  0.94303206     0.06830
C1063       C  0.44654005  0.20203875  0.93637196    -0.15320
C1064       C  0.46917375  0.22307993  0.93566485    -0.15320
C1065       C  0.45962273  0.24617789  0.94157792     0.06830
C1066       C  0.42697934  0.24786467  0.94818698    -0.15320
H1067       H  0.37956474  0.22852771  0.95414371     0.10810
H1068       H  0.45476704  0.18437844  0.93175775     0.10810
H1069       H  0.99399815  0.22129649  0.93046586     0.10810
H1070       H  0.41884297  0.26553402  0.95281696     0.10810
C1071       C  0.19649132  0.45190048  0.93604417    -0.15320
C1072       C  0.16464082  0.45329882  0.94320978     0.06830
C1073       C  0.15583285  0.47617571  0.94953083    -0.15320
C1074       C  0.17853258  0.99720935  0.94874352    -0.15320
C1075       C  0.21042360  0.99576845  0.94161174     0.06830
C1076       C  0.21918956  0.47291799  0.93526547    -0.15320
H1077       H  0.20406338  0.43444062  0.93107230     0.10810
H1078       H  0.13167667  0.97772851  0.95517903     0.10810
H1079       H  0.17102353  0.01466694  0.95373276     0.10810
H1080       H  0.24339532  0.47133528  0.92964555     0.10810
C1081       C  0.28276508  0.03892768  0.01371963    -0.15320
C1082       C  0.26514793  0.01553250  0.01189331     0.06830
C1083       C  0.24255159  0.01291213  0.00074985    -0.15320
C1084       C  0.23776548  0.03312023  0.99164830    -0.15320
C1085       C  0.25542692  0.05649930  0.99345764     0.06830
C1086       C  0.27798962  0.05913916  0.00461152    -0.15320
H1087       H  0.30003145  0.04170450  0.02225503     0.10810
H1088       H  0.22830039  0.49523816  0.99909617     0.10810
H1089       H  0.22051360  0.03032722  0.98311027     0.10810
H1090       H  0.29225933  0.07680998  0.00625351     0.10810
C1091       C  0.14316287  0.43357413  0.99678843    -0.15320
C1092       C  0.12813871  0.43289395  0.00964927     0.06830
C1093       C  0.12152867  0.40894894  0.01555051    -0.15320
C1094       C  0.12979859  0.38638619  0.00878922    -0.15320
C1095       C  0.14467803  0.38707518  0.99590093     0.06830
C1096       C  0.15149272  0.41102212  0.99004077    -0.15320
H1097       H  0.15029574  0.45171990  0.99226579     0.10810
H1098       H  0.11194032  0.40768007  0.02573353     0.10810
H1099       H  0.12258352  0.36824243  0.01329608     0.10810
H1100       H  0.16105929  0.41230708  0.97985485     0.10810
C1101       C  0.39274366  0.18630521  0.99620456    -0.15320
C1102       C  0.37753482  0.18577926  0.00904009     0.06830
C1103       C  0.36966730  0.16192606  0.01480672    -0.15320
C1104       C  0.37756605  0.13929174  0.00808098    -0.15320
C1105       C  0.39300537  0.13978198  0.99529432     0.06830
C1106       C  0.40038664  0.16363292  0.98942005    -0.15320
H1107       H  0.40071921  0.20434896  0.99177446     0.10810
H1108       H  0.35976924  0.16073177  0.02494987     0.10810
H1109       H  0.36984464  0.12124192  0.01257015     0.10810
H1110       H  0.41029105  0.16476956  0.97927848     0.10810
C1111       C  0.09314531  0.11764325  0.06975163    -0.15320
C1112       C  0.06122836  0.11786816  0.06258527     0.06830
C1113       C  0.05055746  0.09569280  0.05578069    -0.15320
C1114       C  0.07162706  0.07382989  0.05600392    -0.15320
C1115       C  0.10373070  0.07369737  0.06305880     0.06830
C1116       C  0.11418491  0.09577791  0.06998890    -0.15320
H1117       H  0.10203525  0.13444955  0.07508856     0.10810
H1118       H  0.02611783  0.09531813  0.05015099     0.10810
H1119       H  0.06277465  0.05703598  0.05064651     0.10810
H1120       H  0.13865288  0.09617996  0.07559689     0.10810
C1121       C  0.36499770  0.34654449  0.06912930    -0.15320
C1122       C  0.35400790  0.32418576  0.06258376     0.06830
C1123       C  0.32139440  0.32397564  0.05588360    -0.15320
C1124       C  0.30031959  0.34580667  0.05561913    -0.15320
C1125       C  0.31153706  0.36826391  0.06201821     0.06830
C1126       C  0.34396209  0.36838041  0.06884423    -0.15320
H1127       H  0.38988703  0.34719236  0.07445641     0.10810
H1128       H  0.31212909  0.30693338  0.05084995     0.10810
H1129       H  0.27545515  0.34518471  0.05027336     0.10810
H1130       H  0.35326400  0.38543098  0.07386177     0.10810
C1131       C  0.36547426  0.09440588  0.05614202    -0.15320
C1132       C  0.35670652  0.11743551  0.06230516     0.06830
C1133       C  0.32499225  0.11892647  0.06957219    -0.15320
C1134       C  0.30235705  0.09787287  0.07056734    -0.15320
C1135       C  0.31101879  0.07489836  0.06432160     0.06830
C1136       C  0.34283016  0.07336331  0.05712783    -0.15320
H1137       H  0.38951746  0.09275342  0.05043385     0.10810
H1138       H  0.31746302  0.13649814  0.07444682     0.10810
H1139       H  0.27823259  0.09955195  0.07622940     0.10810
H1140       H  0.35031156  0.05582340  0.05221389     0.10810
C1141       C  0.11384308  0.34464443  0.05496390    -0.15320
C1142       C  0.10747936  0.36687317  0.06226956     0.06830
C1143       C  0.07774165  0.36776532  0.07067894    -0.15320
C1144       C  0.05469448  0.34694716  0.07169809    -0.15320
C1145       C  0.06098312  0.32475856  0.06435800     0.06830
C1146       C  0.09079895  0.32380240  0.05599500    -0.15320
H1147       H  0.13622412  0.34351500  0.04832055     0.10810
H1148       H  0.07210079  0.38470382  0.07645544     0.10810
H1149       H  0.03222958  0.34812680  0.07830214     0.10810
H1150       H  0.09635129  0.30687607  0.05019611     0.10810
C1151       C  0.03367706  0.28875799  0.01424716    -0.15320
C1152       C  0.01589422  0.26539499  0.01251296     0.06830
C1153       C  0.49319920  0.26278881  0.00138683    -0.15320
C1154       C  0.48848280  0.28293972  0.99222747    -0.15320
C1155       C  0.00631727  0.30628063  0.99393885     0.06830
C1156       C  0.02899080  0.30891116  0.00507201    -0.15320
H1157       H  0.05103086  0.29154717  0.02275576     0.10810
H1158       H  0.47879663  0.24516023  0.99978934     0.10810
H1159       H  0.47112236  0.28013337  0.98372257     0.10810
H1160       H  0.04340151  0.32654228  0.00665287     0.10810
C1161       C  0.06446390  0.21632298  0.14163062    -0.15320
C1162       C  0.09622228  0.20274465  0.14052119     0.06830
C1163       C  0.10573246  0.19256674  0.12812624    -0.15320
C1164       C  0.08413088  0.19613948  0.11698045    -0.15320
C1165       C  0.05266034  0.21004892  0.11799389     0.06830
C1166       C  0.04279578  0.21995544  0.13042964    -0.15320
H1167       H  0.05645117  0.22424109  0.15113177     0.10810
H1168       H  0.12990330  0.18188537  0.12702189     0.10810
H1169       H  0.09240235  0.18825955  0.10750204     0.10810
H1170       H  0.01874627  0.23081278  0.13144519     0.10810
C1171       C  0.33652083  0.21512114  0.13877073    -0.15320
C1172       C  0.30359294  0.20283444  0.13743547     0.06830
C1173       C  0.29276612  0.19497724  0.12462732    -0.15320
C1174       C  0.31444291  0.19936511  0.11344901    -0.15320
C1175       C  0.34737905  0.21168040  0.11484945     0.06830
C1176       C  0.35808563  0.21945990  0.12765703    -0.15320
H1177       H  0.34584905  0.22138136  0.14848167     0.10810
H1178       H  0.26767745  0.18541784  0.12325653     0.10810
H1179       H  0.30535631  0.19317426  0.10369413     0.10810
H1180       H  0.38317160  0.22898194  0.12910734     0.10810
C1181       C  0.36442159  0.45363177  0.12636284    -0.15320
C1182       C  0.34967633  0.45208336  0.13913280     0.06830
C1183       C  0.31293310  0.45379485  0.14064552    -0.15320
C1184       C  0.29128412  0.45789188  0.12948688    -0.15320
C1185       C  0.30618297  0.45957355  0.11671651     0.06830
C1186       C  0.34279865  0.45700074  0.11522236    -0.15320
H1187       H  0.39265684  0.45243314  0.12501911     0.10810
H1188       H  0.30111017  0.45288951  0.15048500     0.10810
H1189       H  0.26312249  0.45978170  0.13081532     0.10810
H1190       H  0.35492271  0.45836465  0.10544895     0.10810
C1191       C  0.09647232  0.45294732  0.13942778    -0.15320
C1192       C  0.05957683  0.45162423  0.13823899     0.06830
C1193       C  0.04416541  0.45383502  0.12548366    -0.15320
C1194       C  0.06520564  0.45739742  0.11413887    -0.15320
C1195       C  0.10200734  0.45967271  0.11536678     0.06830
C1196       C  0.11746945  0.45733720  0.12811669    -0.15320
H1197       H  0.10899502  0.45155420  0.14916883     0.10810
H1198       H  0.01581213  0.45297306  0.12430523     0.10810
H1199       H  0.05256779  0.45921074  0.10443630     0.10810
H1200       H  0.14574423  0.45894669  0.12932943     0.10810
C1201       C  0.09712176  0.04591553  0.19539193    -0.15320
C1202       C  0.06015628  0.04699540  0.19572596     0.06830
C1203       C  0.04385852  0.07104545  0.19628079    -0.15320
C1204       C  0.06408979  0.09354607  0.19637895    -0.15320
C1205       C  0.10099572  0.09249510  0.19547375     0.06830
C1206       C  0.11730082  0.06843838  0.19504692    -0.15320
H1207       H  0.11037148  0.02767215  0.19481396     0.10810
H1208       H  0.01541295  0.07243770  0.19648595     0.10810
H1209       H  0.05078249  0.11180329  0.19659997     0.10810
H1210       H  0.14567220  0.06706921  0.19431249     0.10810
C1211       C  0.31084397  0.34436777  0.19153511    -0.15320
C1212       C  0.34777893  0.34344369  0.19098706     0.06830
C1213       C  0.36445716  0.31963827  0.19005855    -0.15320
C1214       C  0.34460435  0.29708295  0.18996754    -0.15320
C1215       C  0.30781241  0.29791896  0.19123170     0.06830
C1216       C  0.29103226  0.32175018  0.19186668    -0.15320
H1217       H  0.29741736  0.36251092  0.19234061     0.10810
H1218       H  0.39289734  0.31847798  0.18961605     0.10810
H1219       H  0.35816628  0.27894358  0.18952142     0.10810
H1220       H  0.26267784  0.32285499  0.19282364     0.10810
C1221       C  0.36559075  0.07366370  0.18867395    -0.15320
C1222       C  0.35152863  0.04902845  0.18964515     0.06830
C1223       C  0.31473439  0.04554545  0.18976467    -0.15320
C1224       C  0.29225272  0.06654459  0.18903661    -0.15320
C1225       C  0.30642157  0.09121506  0.18855213     0.06830
C1226       C  0.34317424  0.09464176  0.18830886    -0.15320
H1227       H  0.39381393  0.07669433  0.18847990     0.10810
H1228       H  0.30335029  0.02656594  0.19032833     0.10810
H1229       H  0.26400896  0.06358452  0.18920855     0.10810
H1230       H  0.35461710  0.11360883  0.18779281     0.10810
C1231       C  0.06648951  0.29497310  0.19704608    -0.15320
C1232       C  0.10318173  0.29908372  0.19673673     0.06830
C1233       C  0.11625108  0.32403507  0.19599156    -0.15320
C1234       C  0.09286715  0.34451863  0.19491951    -0.15320
C1235       C  0.05615345  0.34034951  0.19493174     0.06830
C1236       C  0.04314108  0.31547686  0.19633487    -0.15320
H1237       H  0.05581637  0.27579245  0.19775675     0.10810
H1238       H  0.14435424  0.32758813  0.19574841     0.10810
H1239       H  0.10354136  0.36367441  0.19408589     0.10810
H1240       H  0.01503996  0.31186537  0.19651381     0.10810
C1241       C  0.44828166  0.29755576  0.37409231    -0.15320
C1242       C  0.45151360  0.31653335  0.36423326     0.06830
C1243       C  0.42930769  0.33787464  0.36445729    -0.15320
C1244       C  0.40623628  0.34132649  0.37509423    -0.15320
C1245       C  0.40601547  0.32378764  0.38572615     0.06830
C1246       C  0.42593128  0.30135245  0.38491092    -0.15320
H1247       H  0.46520569  0.28094635  0.37406217     0.10810
H1248       H  0.43134164  0.35260300  0.35683725     0.10810
H1249       H  0.39106828  0.35877386  0.37559210     0.10810
H1250       H  0.42586424  0.28757789  0.39304610     0.10810
C1251       C  0.18949381  0.34505653  0.37149789    -0.15320
C1252       C  0.17315671  0.32120577  0.36953449     0.06830
C1253       C  0.18105608  0.30104145  0.37837535    -0.15320
C1254       C  0.20374487  0.30511086  0.38932328    -0.15320
C1255       C  0.21950671  0.32914804  0.39130365     0.06830
C1256       C  0.21269830  0.34888853  0.38216607    -0.15320
H1257       H  0.18392241  0.36099348  0.36487023     0.10810
H1258       H  0.16872788  0.28251776  0.37711967     0.10810
H1259       H  0.20879889  0.28961059  0.39628696     0.10810
H1260       H  0.22433777  0.36761996  0.38356608     0.10810
C1261       C  0.15540070  0.29171253  0.24965167    -0.15320
C1262       C  0.12287588  0.29977299  0.25447067     0.06830
C1263       C  0.09229173  0.28704863  0.24973704    -0.15320
C1264       C  0.09460338  0.26446728  0.24216681    -0.15320
C1265       C  0.12769108  0.25450171  0.23905604     0.06830
C1266       C  0.15780413  0.26949687  0.24204988    -0.15320
H1267       H  0.17945043  0.30069917  0.25316869     0.10810
H1268       H  0.06664643  0.29275853  0.25309839     0.10810
H1269       H  0.07088094  0.25396167  0.23965294     0.10810
H1270       H  0.18390292  0.26320897  0.23928949     0.10810
C1271       C  0.02921937  0.34475775  0.24395876    -0.15320
C1272       C  0.03637945  0.34838404  0.25757072     0.06830
C1273       C  0.55421245  0.37101207  0.26142810    -0.15320
C1274       C  0.06032514  0.39089107  0.25232598    -0.15320
C1275       C  0.04937386  0.38858705  0.23903747     0.06830
C1276       C  0.03594230  0.36468442  0.23475608    -0.15320
H1277       H  0.01560615  0.32769648  0.24064341     0.10810
H1278       H  0.56068539  0.37434817  0.27185200     0.10810
H1279       H  0.06981202  0.40908563  0.25603462     0.10810
H1280       H  0.02643917  0.36258617  0.22460461     0.10810
C1281       C  0.41210634  0.07313005  0.37952316    -0.15320
C1282       C  0.42688938  0.07161862  0.36668537     0.06830
C1283       C  0.46368724  0.07383009  0.36541433    -0.15320
C1284       C  0.48508809  0.07827260  0.37670959    -0.15320
C1285       C  0.47022126  0.07982286  0.38954864     0.06830
C1286       C  0.43355338  0.07677799  0.39083316    -0.15320
H1287       H  0.38386490  0.07161800  0.38080443     0.10810
H1288       H  0.47579061  0.07302880  0.35563038     0.10810
H1289       H  0.01323223  0.08049008  0.37541267     0.10810
H1290       H  0.42127821  0.07796888  0.40057447     0.10810
C1291       C  0.23070456  0.06987736  0.37877126    -0.15320
C1292       C  0.21545111  0.06863015  0.36604667     0.06830
C1293       C  0.17871770  0.07067764  0.36452330    -0.15320
C1294       C  0.15756376  0.07504228  0.37565521    -0.15320
C1295       C  0.17303039  0.07666551  0.38836083     0.06830
C1296       C  0.20958625  0.07356118  0.38987576    -0.15320
H1297       H  0.25896842  0.06844995  0.38009093     0.10810
H1298       H  0.16657751  0.07002472  0.35469446     0.10810
H1299       H  0.12941197  0.07731547  0.37435355     0.10810
H1300       H  0.22210138  0.07486498  0.39962001     0.10810
C1301       C  0.28208100  0.10660922  0.24993790    -0.15320
C1302       C  0.25932660  0.10803710  0.26097927     0.06830
C1303       C  0.23916420  0.13027631  0.26262902    -0.15320
C1304       C  0.24190042  0.15066659  0.25355633    -0.15320
C1305       C  0.26480966  0.14936461  0.24256386     0.06830
C1306       C  0.28473717  0.12702239  0.24081661    -0.15320
H1307       H  0.29814860  0.08983045  0.24842803     0.10810
H1308       H  0.22155195  0.13210832  0.27106390     0.10810
H1309       H  0.22589809  0.16745295  0.25513470     0.10810
H1310       H  0.30233867  0.12528443  0.23237702     0.10810
C1311       C  0.41830307  0.18714437  0.32311342    -0.15320
C1312       C  0.42261310  0.16890051  0.31295532     0.06830
C1313       C  0.44837497  0.17299427  0.30315962    -0.15320
C1314       C  0.46938158  0.19502901  0.30350173    -0.15320
C1315       C  0.46565514  0.21286629  0.31387698     0.06830
C1316       C  0.44002229  0.20872584  0.32368980    -0.15320
H1317       H  0.39874886  0.18438432  0.33084977     0.10810
H1318       H  0.45220382  0.15921141  0.29525463     0.10810
H1319       H  0.98923639  0.19777323  0.29587638     0.10810
H1320       H  0.43672513  0.22222990  0.33176579     0.10810
C1321       C  0.16601471  0.44001402  0.32510530    -0.15320
C1322       C  0.16950709  0.42016671  0.31579138     0.06830
C1323       C  0.19519578  0.42214940  0.30581015    -0.15320
C1324       C  0.21691313  0.44373948  0.30506952    -0.15320
C1325       C  0.21251933  0.46409208  0.31403152     0.06830
C1326       C  0.18700818  0.46198944  0.32410947    -0.15320
H1327       H  0.14615761  0.43894326  0.33283938     0.10810
H1328       H  0.19832661  0.40704683  0.29854378     0.10810
H1329       H  0.23633453  0.44488758  0.29718624     0.10810
H1330       H  0.18316564  0.47738598  0.33114996     0.10810
C1331       C  0.19403541  0.17663476  0.30458457    -0.15320
C1332       C  0.21861948  0.17270934  0.31492313     0.06830
C1333       C  0.21998794  0.19013706  0.32558436    -0.15320
C1334       C  0.19627790  0.21063318  0.32609434    -0.15320
C1335       C  0.17160259  0.21442659  0.31574988     0.06830
C1336       C  0.17113848  0.19746667  0.30489537    -0.15320
H1337       H  0.19235862  0.16344212  0.29628156     0.10810
H1338       H  0.23847804  0.18737768  0.33374782     0.10810
H1339       H  0.19719602  0.22349039  0.33455056     0.10810
H1340       H  0.15229068  0.19986532  0.29681677     0.10810
C1341       C  0.43623957  0.45700830  0.32580790    -0.15320
C1342       C  0.41142240  0.45881156  0.31535465     0.06830
C1343       C  0.40924741  0.43896442  0.30597056    -0.15320
C1344       C  0.43293815  0.41846577  0.30659738    -0.15320
C1345       C  0.45840087  0.41713500  0.31684268     0.06830
C1346       C  0.45915522  0.43620950  0.32665177    -0.15320
H1347       H  0.43851980  0.47206280  0.33316712     0.10810
H1348       H  0.39054500  0.43996973  0.29776948     0.10810
H1349       H  0.43180471  0.40389156  0.29894897     0.10810
H1350       H  0.47861844  0.43568598  0.33461316     0.10810
C1351       C  0.42836151  0.00877185  0.26305344    -0.15320
C1352       C  0.41359761  0.03249853  0.25950004     0.06830
C1353       C  0.40010336  0.03560507  0.24648367    -0.15320
C1354       C  0.39785358  0.01490330  0.23774122    -0.15320
C1355       C  0.40957800  0.49056783  0.24170696     0.06830
C1356       C  0.42655054  0.48798515  0.25418724    -0.15320
H1357       H  0.43771897  0.00551056  0.27317822     0.10810
H1358       H  0.38760179  0.05339804  0.24360449     0.10810
H1359       H  0.38543223  0.01775776  0.22806539     0.10810
H1360       H  0.43633194  0.46954831  0.25742889     0.10810
N1361       N  0.25327899  0.57081186  0.29053071    -0.08100
N1362       N  0.24125525  0.58980975  0.28307832    -0.60220
N1363       N  0.27167135  0.51357284  0.30527125    -0.07780
N1364       N  0.26364764  0.98903600  0.30526227    -0.62340
N1365       N  0.24789900  0.52664562  0.31176088    -0.07370
N1366       N  0.22322882  0.51118633  0.31650055    -0.60190
N1367       N  0.27685804  0.55763876  0.28391581    -0.07050
N1368       N  0.28126916  0.56763132  0.27182798    -0.62700
C1369       C  0.25861560  0.58755920  0.27136375     0.94080
C1370       C  0.23350556  0.98773892  0.31238609     0.93860
N1371       N  0.38063239  0.52208590  0.31267778    -0.08280
N1372       N  0.40356632  0.00562639  0.31756310    -0.60790
N1373       N  0.35627701  0.55132725  0.28401720    -0.06400
N1374       N  0.36225750  0.54440567  0.27167043    -0.62050
N1375       N  0.38516480  0.55975669  0.28984718    -0.08310
N1376       N  0.41208335  0.55672844  0.28149669    -0.61060
N1377       N  0.35537371  0.51019564  0.30602459    -0.06040
N1378       N  0.36118924  0.98524637  0.30614712    -0.62130
Mn1379     Mn  0.31461242  0.53267678  0.29473757     1.18440
C1380       C  0.39114883  0.98270460  0.31353316     0.96160
C1381       C  0.39686478  0.54781639  0.27002283     0.96830
N1382       N  0.25238682  0.56790093  0.33415100    -0.08330
N1383       N  0.22654866  0.56088284  0.34210121    -0.64640
N1384       N  0.27884596  0.62205334  0.32039184    -0.07130
N1385       N  0.27123681  0.64654896  0.32179239    -0.65310
N1386       N  0.25396590  0.61050515  0.31347949    -0.07840
N1387       N  0.22929627  0.62688283  0.30987147    -0.64900
N1388       N  0.27794951  0.57893303  0.34099264    -0.06730
N1389       N  0.26999877  0.57947700  0.35381061    -0.65590
Mn1390     Mn  0.25094737  0.56871384  0.31240616     1.10660
C1391       C  0.23807143  0.56794170  0.35431432     0.97380
C1392       C  0.24045239  0.64934158  0.31501801     0.97460
N1393       N  0.38620353  0.60651225  0.31227881    -0.07850
N1394       N  0.41116702  0.62245799  0.30820857    -0.63220
N1395       N  0.36233459  0.57840962  0.34115795    -0.07160
N1396       N  0.37170709  0.58106322  0.35384309    -0.59950
N1397       N  0.38703654  0.56634899  0.33449513    -0.08470
N1398       N  0.41378306  0.56084830  0.34257595    -0.62790
N1399       N  0.36246350  0.61901383  0.31929341    -0.07460
N1400       N  0.37074998  0.64339925  0.32007185    -0.59970
Mn1401     Mn  0.38577534  0.56386659  0.31224072     1.20190
Mn1402     Mn  0.32044885  0.59984113  0.33070206     1.10090
Cl1403     Cl  0.31829294  0.56627494  0.31265124    -0.87940
C1404       C  0.40091803  0.64542570  0.31306752     0.94390
C1405       C  0.40369225  0.56984574  0.35466720     0.94190
N1406       N  0.02577826  0.87249321  0.31022672    -0.08100
N1407       N  0.50043660  0.88748528  0.30564628    -0.60220
N1408       N  0.10681574  0.87211357  0.32279213    -0.07780
N1409       N  0.12987855  0.88899321  0.32727472    -0.62340
N1410       N  0.10726468  0.87132143  0.30960459    -0.07370
N1411       N  0.13089747  0.88757102  0.30487647    -0.60190
N1412       N  0.02636474  0.87266693  0.32334266    -0.07050
N1413       N  0.50195149  0.88812424  0.32802615    -0.62700
C1414       C  0.48569239  0.89704652  0.31686279     0.94080
C1415       C  0.14500099  0.89825871  0.31601733     0.93860
N1416       N  0.10695161  0.80437638  0.34579998    -0.08280
N1417       N  0.13141228  0.79662122  0.35442489    -0.60790
N1418       N  0.02570528  0.82885269  0.34448863    -0.06400
N1419       N  0.49807576  0.83756678  0.35090965    -0.62050
N1420       N  0.02594424  0.80373238  0.34468013    -0.08310
N1421       N  0.49870203  0.79479929  0.35141098    -0.61060
N1422       N  0.10651462  0.82949788  0.34523935    -0.06040
N1423       N  0.13054064  0.83927241  0.35326185    -0.62130
Mn1424     Mn  0.06648040  0.85118573  0.33430041     1.18440
C1425       C  0.14607870  0.81873603  0.35889960     0.96160
C1426       C  0.48145258  0.81615209  0.35509855     0.96830
N1427       N  0.10292954  0.82840825  0.28559279    -0.08330
N1428       N  0.10996683  0.83234734  0.27267240    -0.64640
N1429       N  0.03125073  0.80773483  0.28526712    -0.07130
N1430       N  0.03325267  0.80874026  0.27196751    -0.65310
N1431       N  0.02165105  0.83047715  0.28941326    -0.07840
N1432       N  0.01068093  0.84459410  0.27936306    -0.64900
N1433       N  0.10903362  0.80423038  0.28845415    -0.06730
N1434       N  0.12252181  0.79233008  0.27818583    -0.65590
Mn1435     Mn  0.06492553  0.85085808  0.29865694     1.10660
C1436       C  0.12281999  0.80961231  0.26832070     0.97380
C1437       C  0.52076458  0.83216259  0.26839089     0.97460
N1438       N  0.02638459  0.76165402  0.32218763    -0.07850
N1439       N  0.50313582  0.74441640  0.32622259    -0.63220
N1440       N  0.10667545  0.76152980  0.30999852    -0.07160
N1441       N  0.13011657  0.74548383  0.30520107    -0.59950
N1442       N  0.10743803  0.76128217  0.32316271    -0.08470
N1443       N  0.13157325  0.74505611  0.32758315    -0.62790
N1444       N  0.02654200  0.76298248  0.30899768    -0.07460
N1445       N  0.50416144  0.74634857  0.30384460    -0.59970
Mn1446     Mn  0.06686435  0.78208578  0.33438294     1.20190
Mn1447     Mn  0.06793364  0.78389168  0.29829778     1.10090
Cl1448     Cl  0.06687770  0.81697874  0.31647101    -0.87940
C1449       C  0.48938982  0.73516148  0.31466568     0.94390
C1450       C  0.14567719  0.73546346  0.31622593     0.94190
N1451       N  0.02408896  0.93407022  0.21472701    -0.08100
N1452       N  0.05097620  0.92297006  0.22109733    -0.60220
N1453       N  0.49187357  0.88838318  0.19835222    -0.07780
N1454       N  0.50038768  0.86402443  0.19980830    -0.62340
N1455       N  0.01688240  0.90047900  0.19168092    -0.07370
N1456       N  0.04264309  0.88485698  0.18865965    -0.60190
N1457       N  0.49479558  0.92779534  0.22097387    -0.07050
N1458       N  0.50164446  0.91535398  0.23210066    -0.62700
C1459       C  0.03642174  0.91178514  0.23209874     0.94080
C1460       C  0.03204459  0.86218227  0.19363100     0.93860
N1461       N  0.38388380  0.90566086  0.19334610    -0.08280
N1462       N  0.35821697  0.89065833  0.18898203    -0.60790
N1463       N  0.41596779  0.93581800  0.22108789    -0.06400
N1464       N  0.42437835  0.94732804  0.23247086    -0.62050
N1465       N  0.39185036  0.94914562  0.21465138    -0.08310
N1466       N  0.38368501  0.96972965  0.22153746    -0.61060
N1467       N  0.40838936  0.89217197  0.19931547    -0.06040
N1468       N  0.40030384  0.86764009  0.19905422    -0.62130
Mn1469     Mn  0.45208128  0.91062571  0.20993314     1.18440
C1470       C  0.36903909  0.86693154  0.19251448     0.96160
C1471       C  0.40392368  0.96842253  0.23266168     0.96830
N1472       N  0.02207552  0.94613552  0.17054843    -0.08330
N1473       N  0.04773185  0.94014396  0.16222700    -0.64640
N1474       N  0.99963065  0.49806531  0.18710931    -0.07130
N1475       N  0.00779858  0.52259916  0.18747841    -0.65310
N1476       N  0.02378943  0.98442521  0.19346753    -0.07840
N1477       N  0.04917438  0.49959740  0.19797869    -0.64900
N1478       N  0.49759920  0.95925767  0.16421164    -0.06730
N1479       N  0.00597979  0.96221065  0.15146825    -0.65590
Mn1480     Mn  0.02227522  0.94173271  0.19259965     1.10660
C1481       C  0.03716613  0.95002059  0.15032068     0.97380
C1482       C  0.03859649  0.52339765  0.19433346     0.97460
N1483       N  0.39033108  0.48866778  0.19209719    -0.07850
N1484       N  0.36415197  0.50398198  0.19504367    -0.63220
N1485       N  0.41338645  0.96009922  0.16439972    -0.07160
N1486       N  0.40472422  0.96212407  0.15163033    -0.59950
N1487       N  0.38817485  0.94816064  0.17101637    -0.08470
N1488       N  0.36186623  0.94216963  0.16297058    -0.62790
N1489       N  0.41554901  0.50112969  0.18588173    -0.07460
N1490       N  0.40687139  0.52542747  0.18447611    -0.59970
Mn1491     Mn  0.38761692  0.94743915  0.19282801     1.20190
Mn1492     Mn  0.45673158  0.98005641  0.17517028     1.10090
Cl1493     Cl  0.45485266  0.94491425  0.19252295    -0.89860
C1494       C  0.37486082  0.52683789  0.19036577     0.94390
C1495       C  0.37272101  0.95067368  0.15090903     0.94190
N1496       N  0.13864743  0.70382237  0.21639510    -0.08100
N1497       N  0.11551574  0.71894081  0.22248337    -0.60220
N1498       N  0.16709343  0.75053045  0.20099472    -0.07780
N1499       N  0.15861195  0.77487861  0.20260703    -0.62340
N1500       N  0.14204678  0.73886289  0.19417444    -0.07370
N1501       N  0.11623194  0.75451394  0.19118343    -0.60190
N1502       N  0.16929946  0.70658232  0.22245468    -0.07050
N1503       N  0.16566759  0.71907651  0.23368837    -0.62700
C1504       C  0.13308951  0.72856203  0.23325169     0.94080
C1505       C  0.12685770  0.77693495  0.19631869     0.93860
N1506       N  0.27425746  0.73496414  0.19340018    -0.08280
N1507       N  0.29835373  0.75083775  0.18866291    -0.60790
N1508       N  0.24821828  0.70185225  0.22089664    -0.06400
N1509       N  0.24401300  0.69078589  0.23271875    -0.62050
N1510       N  0.27117819  0.68906904  0.21378455    -0.08310
N1511       N  0.28282455  0.66910838  0.22066142    -0.61060
N1512       N  0.25046257  0.74747695  0.20017486    -0.06040
N1513       N  0.25757103  0.77218341  0.20015196    -0.62130
Mn1514     Mn  0.20923132  0.72706426  0.21114030     1.18440
C1515       C  0.28743866  0.77403358  0.19286929     0.96160
C1516       C  0.26595399  0.67049772  0.23253662     0.96830
N1517       N  0.13574123  0.69668093  0.17232527    -0.08330
N1518       N  0.11027798  0.70604600  0.16477524    -0.64640
N1519       N  0.15984868  0.64248696  0.18654929    -0.07130
N1520       N  0.15166518  0.61792003  0.18646080    -0.65310
N1521       N  0.13694275  0.65528559  0.19385265    -0.07840
N1522       N  0.11244099  0.63957511  0.19853559    -0.64900
N1523       N  0.15865798  0.68428581  0.16499589    -0.06730
N1524       N  0.14897334  0.68478488  0.15228489    -0.65590
Mn1525     Mn  0.13786274  0.69795121  0.19418798     1.10660
C1526       C  0.11885902  0.69856901  0.15231726     0.97380
C1527       C  0.12220517  0.61627354  0.19400598     0.97460
N1528       N  0.26928394  0.65206434  0.19018153    -0.07850
N1529       N  0.29498486  0.63639309  0.19330172    -0.63220
N1530       N  0.24363807  0.68358647  0.16314103    -0.07160
N1531       N  0.25098184  0.68469217  0.15015235    -0.59950
N1532       N  0.26868374  0.69525482  0.17000375    -0.08470
N1533       N  0.29310302  0.70442087  0.16197424    -0.62790
N1534       N  0.24372567  0.63998849  0.18393099    -0.07460
N1535       N  0.25164226  0.61552544  0.18268056    -0.59970
Mn1536     Mn  0.27179951  0.69316648  0.19187511     1.20190
Mn1537     Mn  0.20120575  0.66201322  0.17427606     1.10090
Cl1538     Cl  0.20492060  0.69507382  0.19275576    -0.87940
C1539       C  0.28366804  0.61371351  0.18868473     0.94390
C1540       C  0.28193117  0.69794606  0.14960271     0.94190
N1541       N  0.38720596  0.72002476  0.08299436    -0.08100
N1542       N  0.36139565  0.71044807  0.09032988    -0.60220
N1543       N  0.41407844  0.77451769  0.06968015    -0.07780
N1544       N  0.40546236  0.79881353  0.07071427    -0.62340
N1545       N  0.39112965  0.76238316  0.06199616    -0.07370
N1546       N  0.36643138  0.77824902  0.05779536    -0.60190
N1547       N  0.41055746  0.73173471  0.09062201    -0.07050
N1548       N  0.40075136  0.73041628  0.10332042    -0.62700
C1549       C  0.37008993  0.71693823  0.10300925     0.94080
C1550       C  0.37586237  0.80093197  0.06320535     0.93860
N1551       N  0.02302365  0.76343946  0.06537529    -0.08280
N1552       N  0.04819531  0.77891077  0.06134701    -0.60790
N1553       N  0.49564318  0.73147282  0.09221349    -0.06400
N1554       N  0.50196609  0.72932804  0.10520986    -0.62050
N1555       N  0.02046107  0.71981761  0.08540181    -0.08310
N1556       N  0.04378729  0.70947215  0.09350467    -0.61060
N1557       N  0.49859069  0.77587440  0.07192631    -0.06040
N1558       N  0.50719369  0.80043748  0.07257700    -0.62130
Mn1559     Mn  0.45464612  0.75402763  0.08152563     1.18440
C1560       C  0.03819008  0.80193400  0.06579188     0.96160
C1561       C  0.03200394  0.71536820  0.10580379     0.96830
N1562       N  0.39409279  0.71799332  0.03856424    -0.08330
N1563       N  0.36927546  0.71307804  0.02946184    -0.64640
N1564       N  0.41787504  0.66686956  0.05425113    -0.07130
N1565       N  0.41013074  0.64212555  0.05402820    -0.65310
N1566       N  0.39277319  0.67921084  0.06051221    -0.07840
N1567       N  0.36797593  0.66360028  0.06469938    -0.64900
N1568       N  0.42467018  0.71199813  0.03345425    -0.06730
N1569       N  0.42195320  0.70656359  0.02076663    -0.65590
Mn1570     Mn  0.39040262  0.72022320  0.06092448     1.10660
C1571       C  0.38751457  0.70634445  0.01824510     0.97380
C1572       C  0.37894993  0.64049902  0.06070797     0.97460
N1573       N  0.02597445  0.68033055  0.06215756    -0.07850
N1574       N  0.05057083  0.66444679  0.06644577    -0.63220
N1575       N  0.50183808  0.71315082  0.03456869    -0.07160
N1576       N  0.49751359  0.72370129  0.02262357    -0.59950
N1577       N  0.02430793  0.72658846  0.04169177    -0.08470
N1578       N  0.03528852  0.74667395  0.03469582    -0.62790
N1579       N  0.50201710  0.66797639  0.05523593    -0.07460
N1580       N  0.50979012  0.64347965  0.05450859    -0.59970
Mn1581     Mn  0.02440489  0.72232916  0.06367954     1.20190
Mn1582     Mn  0.46173088  0.68921819  0.04439414     1.10090
Cl1583     Cl  0.45769266  0.72137842  0.06279778    -0.87940
C1584       C  0.04004781  0.64147183  0.06165068     0.94390
C1585       C  0.01860032  0.74452002  0.02271273     0.94190
N1586       N  0.13874360  0.96937621  0.08320234    -0.08100
N1587       N  0.11366543  0.95944782  0.09075405    -0.60220
N1588       N  0.16419618  0.52400095  0.06987708    -0.07780
N1589       N  0.15546896  0.54827328  0.07099488    -0.62340
N1590       N  0.14107951  0.51186769  0.06225128    -0.07370
N1591       N  0.11618304  0.52771878  0.05818628    -0.60190
N1592       N  0.16272600  0.98076489  0.09068294    -0.07050
N1593       N  0.15434400  0.97866286  0.10349895    -0.62700
C1594       C  0.12373839  0.96519744  0.10338878     0.94080
C1595       C  0.12563492  0.55039688  0.06361138     0.93860
N1596       N  0.27307250  0.51357845  0.06477271    -0.08280
N1597       N  0.29814836  0.52919497  0.06082706    -0.60790
N1598       N  0.24732641  0.98089831  0.09165511    -0.06400
N1599       N  0.25414957  0.97818985  0.10459028    -0.62050
N1600       N  0.27204911  0.96975827  0.08457116    -0.08310
N1601       N  0.29598985  0.95941821  0.09239233    -0.61060
N1602       N  0.24883372  0.52576000  0.07155520    -0.06040
N1603       N  0.25740725  0.55029602  0.07241010    -0.62130
Mn1604     Mn  0.20569770  0.00354325  0.08139080     1.18440
C1605       C  0.28823910  0.55204301  0.06554279     0.96160
C1606       C  0.28454435  0.96461158  0.10480896     0.96830
N1607       N  0.14327522  0.96724534  0.03869382    -0.08330
N1608       N  0.11845273  0.96049438  0.02991756    -0.64640
N1609       N  0.16817353  0.91660131  0.05402674    -0.07130
N1610       N  0.16046790  0.89183913  0.05367972    -0.65310
N1611       N  0.14341475  0.92870200  0.06059940    -0.07840
N1612       N  0.11893754  0.91293431  0.06489161    -0.64900
N1613       N  0.17402970  0.96246779  0.03337968    -0.06730
N1614       N  0.17105490  0.95649530  0.02076713    -0.65590
Mn1615     Mn  0.14064728  0.96964685  0.06108893     1.10660
C1616       C  0.13660426  0.95423128  0.01860817     0.97380
C1617       C  0.12971556  0.88996179  0.06063712     0.97460
N1618       N  0.27647280  0.93065067  0.06133447    -0.07850
N1619       N  0.30113037  0.91484740  0.06561943    -0.63220
N1620       N  0.25111241  0.96347684  0.03400215    -0.07160
N1621       N  0.24657478  0.97397154  0.02205798    -0.59950
N1622       N  0.27384253  0.97685873  0.04101368    -0.08470
N1623       N  0.28486716  0.99683791  0.03396896    -0.62790
N1624       N  0.25228156  0.91820907  0.05458482    -0.07460
N1625       N  0.25994748  0.89368821  0.05396157    -0.59970
Mn1626     Mn  0.27474872  0.97252002  0.06290144     1.20190
Mn1627     Mn  0.21152024  0.93942891  0.04402528     1.10090
Cl1628     Cl  0.20787417  0.97129404  0.06263358    -0.87940
C1629       C  0.29040530  0.89181442  0.06099329     0.94390
C1630       C  0.26787959  0.99467967  0.02205747     0.94190
N1631       N  0.99754678  0.84460787  0.96462102    -0.08100
N1632       N  0.98646443  0.82479135  0.97179134    -0.60220
N1633       N  0.01955293  0.90281070  0.95068067    -0.07780
N1634       N  0.01188869  0.92732751  0.95137551    -0.62340
N1635       N  0.99522576  0.89040332  0.94397523    -0.07370
N1636       N  0.47045087  0.90624370  0.93981921    -0.60190
N1637       N  0.02055890  0.85796134  0.97153095    -0.07050
N1638       N  0.02519241  0.84761398  0.98351236    -0.62700
C1639       C  0.00367755  0.82701721  0.98366240     0.94080
C1640       C  0.98127803  0.92925816  0.94445189     0.93860
N1641       N  0.12827565  0.89159796  0.94446718    -0.08280
N1642       N  0.15297976  0.90728912  0.94027771    -0.60790
N1643       N  0.09781292  0.85884545  0.97199835    -0.06400
N1644       N  0.10091476  0.86466095  0.98462521    -0.62050
N1645       N  0.12841517  0.85358648  0.96668778    -0.08310
N1646       N  0.15342887  0.85958443  0.97553547    -0.61060
N1647       N  0.10355156  0.90381961  0.95101985    -0.06040
N1648       N  0.11140739  0.92851818  0.95140426    -0.62130
Mn1649     Mn  0.06028878  0.88162814  0.96130253     1.18440
C1650       C  0.14225899  0.93028628  0.94454468     0.96160
C1651       C  0.13542776  0.86606979  0.98684929     0.96830
N1652       N  0.99949392  0.85043264  0.92087072    -0.08330
N1653       N  0.47537938  0.85975927  0.91274018    -0.64640
N1654       N  0.02223437  0.79492536  0.93459016    -0.07130
N1655       N  0.01358983  0.77042289  0.93384745    -0.65310
N1656       N  0.99779255  0.80736300  0.94112124    -0.07840
N1657       N  0.97244423  0.79192487  0.94502108    -0.64900
N1658       N  0.02446029  0.83886771  0.91409535    -0.06730
N1659       N  0.01775784  0.84029762  0.90112594    -0.65590
Mn1660     Mn  0.99652557  0.84843971  0.94263114     1.10660
C1661       C  0.98719923  0.85355416  0.90048391     0.97380
C1662       C  0.98249333  0.76893894  0.94052310     0.97460
N1663       N  0.13012306  0.80838380  0.94365615    -0.07850
N1664       N  0.15502413  0.79256408  0.94772723    -0.63220
N1665       N  0.10891898  0.83793818  0.91490370    -0.07160
N1666       N  0.11818733  0.83738541  0.90215345    -0.59950
N1667       N  0.13336940  0.84951702  0.92207626    -0.08470
N1668       N  0.15978590  0.85684722  0.91432531    -0.62790
N1669       N  0.10657939  0.79610595  0.93630487    -0.07460
N1670       N  0.11497614  0.77176302  0.93536731    -0.59970
Mn1671     Mn  0.13101185  0.85055451  0.94428958     1.20190
Mn1672     Mn  0.06555520  0.81641306  0.92462754     1.10090
Cl1673     Cl  0.06345290  0.84936042  0.94303672    -0.87940
C1674       C  0.14506947  0.76975878  0.94258951     0.94390
C1675       C  0.14986160  0.84939884  0.90188962     0.94190
N1676       N  0.24709503  0.59468634  0.96415813    -0.08100
N1677       N  0.23582474  0.57494780  0.97132758    -0.60220
N1678       N  0.26916789  0.65267892  0.95018701    -0.07780
N1679       N  0.26141322  0.67716830  0.95086212    -0.62340
N1680       N  0.24495020  0.64020907  0.94345801    -0.07370
N1681       N  0.22012744  0.65598736  0.93927362    -0.60190
N1682       N  0.27002619  0.60805526  0.97109376    -0.07050
N1683       N  0.27444365  0.59778874  0.98309986    -0.62700
C1684       C  0.25285111  0.57723672  0.98322377     0.94080
C1685       C  0.23085597  0.67902573  0.94390879     0.93860
N1686       N  0.37779936  0.64193102  0.94415348    -0.08280
N1687       N  0.40247172  0.65768336  0.94001572    -0.60790
N1688       N  0.34735839  0.60907809  0.97175303    -0.06400
N1689       N  0.35028031  0.61562211  0.98428799    -0.62050
N1690       N  0.37819753  0.60444586  0.96646390    -0.08310
N1691       N  0.40293003  0.61183478  0.97513670    -0.61060
N1692       N  0.35297743  0.65406054  0.95069239    -0.06040
N1693       N  0.36069174  0.67878034  0.95109976    -0.62130
Mn1694     Mn  0.30981368  0.63170764  0.96092906     1.18440
C1695       C  0.39159967  0.68063630  0.94428366     0.96160
C1696       C  0.38469494  0.61833098  0.98638529     0.96830
N1697       N  0.24977350  0.60009728  0.92048994    -0.08330
N1698       N  0.22581858  0.60951437  0.91233259    -0.64640
N1699       N  0.27264238  0.54470034  0.93436148    -0.07130
N1700       N  0.26421611  0.52013745  0.93373266    -0.65310
N1701       N  0.24806323  0.55713521  0.94082206    -0.07840
N1702       N  0.22287393  0.54163445  0.94480277    -0.64900
N1703       N  0.27479225  0.58851113  0.91375824    -0.06730
N1704       N  0.26825747  0.58999347  0.90077582    -0.65590
Mn1705     Mn  0.24648294  0.59825370  0.94220525     1.10660
C1706       C  0.23774667  0.60331728  0.90009778     0.97380
C1707       C  0.23313106  0.51861320  0.94042064     0.97460
N1708       N  0.38042368  0.55874344  0.94357684    -0.07850
N1709       N  0.40537002  0.54304294  0.94775449    -0.63220
N1710       N  0.35917400  0.58798606  0.91470702    -0.07160
N1711       N  0.36842429  0.58763660  0.90195138    -0.59950
N1712       N  0.38340742  0.59975789  0.92189559    -0.08470
N1713       N  0.40965018  0.60743978  0.91415722    -0.62790
N1714       N  0.35705085  0.54629556  0.93622098    -0.07460
N1715       N  0.36560399  0.52196677  0.93539360    -0.59970
Mn1716     Mn  0.38090693  0.60096565  0.94408667     1.20190
Mn1717     Mn  0.31593881  0.56628995  0.92440755     1.10090
Cl1718     Cl  0.31338995  0.59938544  0.94273913    -0.87940
C1719       C  0.39561480  0.52013384  0.94268003     0.94390
C1720       C  0.39985881  0.59998647  0.90171101     0.94190
N1721       N  0.14116333  0.58800762  0.42038639    -0.08100
N1722       N  0.16418723  0.57704167  0.41259124    -0.60220
N1723       N  0.11970883  0.64402113  0.43336572    -0.07780
N1724       N  0.12853218  0.66853222  0.43252340    -0.62340
N1725       N  0.14409552  0.63152926  0.44007374    -0.07370
N1726       N  0.16955840  0.64691144  0.44395642    -0.60190
N1727       N  0.11640613  0.59945662  0.41332338    -0.07050
N1728       N  0.12230196  0.59639773  0.40039154    -0.62700
C1729       C  0.15216549  0.58223827  0.40020593     0.94080
C1730       C  0.15971496  0.66994742  0.43929290     0.93860
N1731       N  0.01225179  0.63076490  0.44281217    -0.08280
N1732       N  0.48764748  0.64668589  0.44683761    -0.60790
N1733       N  0.03202921  0.60013938  0.41429762    -0.06400
N1734       N  0.02317959  0.59839487  0.40147729    -0.62050
N1735       N  0.00814699  0.58875440  0.42179460    -0.08310
N1736       N  0.48267302  0.57919175  0.41423838    -0.61060
N1737       N  0.03528491  0.64285733  0.43516803    -0.06040
N1738       N  0.02682785  0.66718177  0.43398846    -0.62130
Mn1739     Mn  0.07578269  0.62229826  0.42361719     1.18440
C1740       C  0.49723269  0.66935056  0.44136665     0.96160
C1741       C  0.49236365  0.58515460  0.40157627     0.96830
N1742       N  0.14529422  0.59388719  0.46375971    -0.08330
N1743       N  0.15702468  0.61347555  0.47085683    -0.64640
N1744       N  0.12202395  0.53598705  0.45017463    -0.07130
N1745       N  0.12963432  0.51146909  0.45096219    -0.65310
N1746       N  0.14619594  0.54840921  0.44342616    -0.07840
N1747       N  0.17077502  0.53256837  0.43929952    -0.64900
N1748       N  0.12271126  0.58041474  0.47078492    -0.06730
N1749       N  0.11900377  0.59043230  0.48279527    -0.65590
Mn1750     Mn  0.14511671  0.59034534  0.44190873     1.10660
C1751       C  0.14063047  0.61094187  0.48280894     0.97380
C1752       C  0.16000220  0.00955448  0.44401898     0.97460
N1753       N  0.01306346  0.54761949  0.44451396    -0.07850
N1754       N  0.48812307  0.53210390  0.44034032    -0.63220
N1755       N  0.04546799  0.58015612  0.47163971    -0.07160
N1756       N  0.04296502  0.57445739  0.48432447    -0.59950
N1757       N  0.01473750  0.58593591  0.46643724    -0.08470
N1758       N  0.49010218  0.58043790  0.47546835    -0.62790
N1759       N  0.03810435  0.53517545  0.45090780    -0.07460
N1760       N  0.03026052  0.51045546  0.45119891    -0.59970
Mn1761     Mn  0.01106071  0.58861782  0.44397754     1.20190
Mn1762     Mn  0.08212384  0.55717344  0.46086564     1.10090
Cl1763     Cl  0.07839960  0.58959564  0.44245776    -0.87940
C1764       C  0.49901470  0.00895156  0.44446049     0.94390
C1765       C  0.00856815  0.57370000  0.48674933     0.94190
N1766       N  0.38748407  0.83838349  0.41905506    -0.08100
N1767       N  0.40619389  0.82549058  0.41036160    -0.60220
N1768       N  0.36875872  0.89450691  0.43348776    -0.07780
N1769       N  0.37715359  0.91910392  0.43301323    -0.62340
N1770       N  0.39423045  0.88161421  0.43931899    -0.07370
N1771       N  0.42006082  0.89683966  0.44301743    -0.60190
N1772       N  0.36203086  0.85099407  0.41296664    -0.07050
N1773       N  0.36319083  0.84716270  0.39992796    -0.62700
C1774       C  0.39064283  0.83101456  0.39852241     0.94080
C1775       C  0.40925571  0.92015893  0.43911874     0.93860
N1776       N  0.26216500  0.88077124  0.44450972    -0.08280
N1777       N  0.23743543  0.89645550  0.44873016    -0.60790
N1778       N  0.27945362  0.85158255  0.41572011    -0.06400
N1779       N  0.27036706  0.84974219  0.40298018    -0.62050
N1780       N  0.25718859  0.83872591  0.42327147    -0.08310
N1781       N  0.23290814  0.82748663  0.41578548    -0.61060
N1782       N  0.28476198  0.89324749  0.43684487    -0.06040
N1783       N  0.27590999  0.91748955  0.43582375    -0.62130
Mn1784     Mn  0.32370367  0.87343221  0.42441779     1.18440
C1785       C  0.24655500  0.91931661  0.44333570     0.96160
C1786       C  0.24155803  0.83444245  0.40316105     0.96830
N1787       N  0.39768013  0.84363303  0.46270110    -0.08330
N1788       N  0.40899490  0.86358698  0.46965991    -0.64640
N1789       N  0.37325920  0.78584117  0.44907493    -0.07130
N1790       N  0.38117641  0.76138216  0.44973683    -0.65310
N1791       N  0.39658642  0.79839308  0.44198071    -0.07840
N1792       N  0.42093921  0.78268640  0.43751289    -0.64900
N1793       N  0.37600533  0.82982847  0.46998877    -0.06730
N1794       N  0.37272068  0.83991772  0.48200308    -0.65590
Mn1795     Mn  0.39517282  0.84032099  0.44071977     1.10660
C1796       C  0.39345247  0.86088571  0.48178561     0.97380
C1797       C  0.41084025  0.75961441  0.44237278     0.97460
N1798       N  0.26375206  0.79731939  0.44544749    -0.07850
N1799       N  0.23859216  0.78192001  0.44133329    -0.63220
N1800       N  0.29871770  0.82860017  0.47227255    -0.07160
N1801       N  0.29723511  0.82262979  0.48495101    -0.59950
N1802       N  0.26778819  0.83537342  0.46759709    -0.08470
N1803       N  0.24387679  0.83066547  0.47699806    -0.62790
N1804       N  0.28959978  0.78462222  0.45119060    -0.07460
N1805       N  0.28204515  0.75983563  0.45113173    -0.59970
Mn1806     Mn  0.26162141  0.83839127  0.44532906     1.20190
Mn1807     Mn  0.33457822  0.80650399  0.46059682     1.10090
Cl1808     Cl  0.32847948  0.83976364  0.44258901    -0.87940
C1809       C  0.25012858  0.75856800  0.44483061     0.94390
C1810       C  0.26310625  0.82307914  0.48792569     0.94190
N1811       N  0.50143951  0.96972428  0.53851783    -0.08100
N1812       N  0.02601552  0.97831299  0.53012073    -0.60220
N1813       N  0.47530452  0.51842388  0.55423001    -0.07780
N1814       N  0.48313072  0.54312193  0.55369171    -0.62340
N1815       N  0.50006552  0.50627590  0.56094514    -0.07370
N1816       N  0.02477618  0.52198651  0.56509144    -0.60190
N1817       N  0.47053277  0.97393597  0.53304618    -0.07050
N1818       N  0.47346862  0.98120750  0.52059270    -0.62700
C1819       C  0.00776580  0.98493616  0.51878786     0.94080
C1820       C  0.51400684  0.54493943  0.56063640     0.93860
N1821       N  0.36714938  0.50375703  0.56072834    -0.08280
N1822       N  0.34222799  0.51934560  0.56487059    -0.60790
N1823       N  0.39337255  0.97262058  0.53316203    -0.06400
N1824       N  0.39822974  0.96284728  0.52113774    -0.62050
N1825       N  0.37048871  0.95884645  0.53986847    -0.08310
N1826       N  0.35967178  0.93929761  0.53252509    -0.61060
N1827       N  0.39144978  0.51654701  0.55423346    -0.06040
N1828       N  0.38366906  0.54106176  0.55367912    -0.62130
Mn1829     Mn  0.43254546  0.49607089  0.54371734     1.18440
C1830       C  0.35298621  0.54260815  0.56045275     0.96160
C1831       C  0.37694400  0.94215360  0.52076143     0.96830
N1832       N  0.00541665  0.96363352  0.58312832    -0.08330
N1833       N  0.03111823  0.97170440  0.59105412    -0.64640
N1834       N  0.48024254  0.91036677  0.56859489    -0.07130
N1835       N  0.48888471  0.88603724  0.56940218    -0.65310
N1836       N  0.00361064  0.92308473  0.56137836    -0.07840
N1837       N  0.02868069  0.90754177  0.55729780    -0.64900
N1838       N  0.48122026  0.95154133  0.59016796    -0.06730
N1839       N  0.49000913  0.95130632  0.60300906    -0.65590
Mn1840     Mn  0.00362308  0.96539515  0.56092402     1.10660
C1841       C  0.02109438  0.96410214  0.60344407     0.97380
C1842       C  0.01896808  0.88446065  0.56227247     0.97460
N1843       N  0.37157707  0.92051483  0.56305855    -0.07850
N1844       N  0.34684240  0.90485162  0.55883463    -0.63220
N1845       N  0.39664101  0.95120751  0.59054547    -0.07160
N1846       N  0.38965511  0.95217816  0.60348078    -0.59950
N1847       N  0.37156391  0.96270573  0.58363621    -0.08470
N1848       N  0.34708593  0.97150654  0.59163443    -0.62790
N1849       N  0.39602756  0.90817578  0.56980109    -0.07460
N1850       N  0.38794043  0.88356499  0.57041971    -0.59970
Mn1851     Mn  0.36922033  0.96170466  0.56182059     1.20190
Mn1852     Mn  0.43856992  0.92972509  0.58016556     1.10090
Cl1853     Cl  0.43624765  0.96327997  0.56197499    -0.87940
C1854       C  0.35727778  0.88187216  0.56338553     0.94390
C1855       C  0.35877080  0.96504553  0.60395014     0.94190
N1856       N  0.25142795  0.71877011  0.53887455    -0.08100
N1857       N  0.27644151  0.72662021  0.53049136    -0.60220
N1858       N  0.22606420  0.76809635  0.55430978    -0.07780
N1859       N  0.23409265  0.79272818  0.55363402    -0.62340
N1860       N  0.25067164  0.75592973  0.56109709    -0.07370
N1861       N  0.27547654  0.77162631  0.56520051    -0.60190
N1862       N  0.22073439  0.72353015  0.53334022    -0.07050
N1863       N  0.22412968  0.73061473  0.52087595    -0.62700
C1864       C  0.25861976  0.73356727  0.51913241     0.94080
C1865       C  0.26487772  0.79454251  0.56061137     0.93860
N1866       N  0.11804061  0.75447342  0.56109889    -0.08280
N1867       N  0.09328155  0.77024797  0.56516575    -0.60790
N1868       N  0.14323215  0.72293325  0.53360494    -0.06400
N1869       N  0.14757056  0.71303878  0.52159131    -0.62050
N1870       N  0.12012133  0.70953294  0.54040158    -0.08310
N1871       N  0.10859173  0.69011437  0.53313802    -0.61060
N1872       N  0.14235223  0.76700040  0.55447277    -0.06040
N1873       N  0.13472917  0.79153394  0.55375615    -0.62130
Mn1874     Mn  0.18299653  0.74604028  0.54396089     1.18440
C1875       C  0.10414220  0.79335208  0.56057375     0.96160
C1876       C  0.12569026  0.69267353  0.52133228     0.96830
N1877       N  0.25551992  0.71345818  0.58338844    -0.08330
N1878       N  0.28122534  0.72164239  0.59127146    -0.64640
N1879       N  0.22973404  0.66005295  0.56899209    -0.07130
N1880       N  0.23814682  0.63566507  0.56979926    -0.65310
N1881       N  0.25323054  0.67264239  0.56178043    -0.07840
N1882       N  0.27812113  0.65697363  0.55768587    -0.64900
N1883       N  0.23131116  0.70147922  0.59046817    -0.06730
N1884       N  0.24007526  0.70145416  0.60330999    -0.65590
Mn1885     Mn  0.25368235  0.71493350  0.56122920     1.10660
C1886       C  0.27117532  0.71424171  0.60368550     0.97380
C1887       C  0.26821242  0.63393923  0.56265681     0.97460
N1888       N  0.12086053  0.67124741  0.56361749    -0.07850
N1889       N  0.09563621  0.65586040  0.55953075    -0.63220
N1890       N  0.14691832  0.70175359  0.59093052    -0.07160
N1891       N  0.13994347  0.70269225  0.60386349    -0.59950
N1892       N  0.12207760  0.71356699  0.58405050    -0.08470
N1893       N  0.09777325  0.72255544  0.59205514    -0.62790
N1894       N  0.14529984  0.65863906  0.57023112    -0.07460
N1895       N  0.13675663  0.63410348  0.57085329    -0.59970
Mn1896     Mn  0.11934683  0.71246409  0.56230012     1.20190
Mn1897     Mn  0.18835147  0.67984156  0.58053608     1.10090
Cl1898     Cl  0.18635298  0.71334779  0.56230069    -0.87940
C1899       C  0.10575688  0.63275444  0.56400531     0.94390
C1900       C  0.10932392  0.71587746  0.60434917     0.94190
N1901       N  0.37475218  0.71938107  0.67154469    -0.08100
N1902       N  0.34879622  0.72639189  0.66345684    -0.60220
N1903       N  0.40033849  0.66699696  0.68684079    -0.07780
N1904       N  0.39256638  0.64248006  0.68644722    -0.62340
N1905       N  0.37654804  0.67954038  0.69382962    -0.07370
N1906       N  0.35196209  0.66359878  0.69813486    -0.60190
N1907       N  0.39928714  0.70740564  0.66475412    -0.07050
N1908       N  0.39049739  0.70619961  0.65194064    -0.62700
C1909       C  0.35907009  0.71828483  0.65123906     0.94080
C1910       C  0.36253110  0.64054097  0.69355448     0.93860
N1911       N  0.00859303  0.67702374  0.69200745    -0.08280
N1912       N  0.03439698  0.66170142  0.69555118    -0.60790
N1913       N  0.48385550  0.70754466  0.66449001    -0.06400
N1914       N  0.49154838  0.70739305  0.65162002    -0.62050
N1915       N  0.00907033  0.71910059  0.67130565    -0.08310
N1916       N  0.03441646  0.72681031  0.66328625    -0.61060
N1917       N  0.48414217  0.66464232  0.68532007    -0.06040
N1918       N  0.49317016  0.64035777  0.68408337    -0.62130
Mn1919     Mn  0.44175338  0.68619390  0.67502538     1.18440
C1920       C  0.02451646  0.63886174  0.69066304     0.96160
C1921       C  0.02298571  0.71966219  0.65105588     0.96830
N1922       N  0.37614253  0.72717832  0.71616566    -0.08330
N1923       N  0.34973143  0.73192658  0.72457696    -0.64640
N1924       N  0.40524727  0.77571278  0.69928774    -0.07130
N1925       N  0.39824776  0.80047438  0.69921414    -0.65310
N1926       N  0.38005350  0.76326089  0.69292671    -0.07840
N1927       N  0.35592883  0.77898700  0.68833426    -0.64900
N1928       N  0.40556950  0.73521234  0.72169468    -0.06730
N1929       N  0.40059462  0.74307925  0.73393567    -0.65590
Mn1930     Mn  0.37580602  0.72198115  0.69371335     1.10660
C1931       C  0.36597794  0.74111722  0.73583900     0.97380
C1932       C  0.36752075  0.80214471  0.69220104     0.97460
N1933       N  0.01318213  0.76002123  0.69404020    -0.07850
N1934       N  0.03885173  0.77543144  0.69013101    -0.63220
N1935       N  0.48320353  0.72878230  0.72157717    -0.07160
N1936       N  0.47403864  0.71687527  0.73276444    -0.59950
N1937       N  0.00633229  0.71502046  0.71502616    -0.08470
N1938       N  0.01269587  0.69355513  0.72163646    -0.62790
N1939       N  0.48874773  0.77294361  0.70020664    -0.07460
N1940       N  0.49704716  0.79735767  0.70073172    -0.59970
Mn1941     Mn  0.01029346  0.71821924  0.69316316     1.20190
Mn1942     Mn  0.44628469  0.75377188  0.71064169     1.10090
Cl1943     Cl  0.44315864  0.72003672  0.69290594    -0.87940
C1944       C  0.02824672  0.79872473  0.69433724     0.94390
C1945       C  0.99252727  0.69493101  0.73271648     0.94190
N1946       N  0.13672196  0.59895729  0.83308530    -0.08100
N1947       N  0.16201908  0.60809615  0.84075565    -0.60220
N1948       N  0.11075120  0.54362153  0.82045729    -0.07780
N1949       N  0.12004718  0.51939254  0.82202945    -0.62340
N1950       N  0.13451692  0.55569185  0.81328523    -0.07370
N1951       N  0.15999820  0.54025263  0.80975056    -0.60190
N1952       N  0.11201095  0.58792172  0.84035257    -0.07050
N1953       N  0.12000252  0.58957472  0.85319147    -0.62700
C1954       C  0.15109771  0.60235843  0.85323993     0.94080
C1955       C  0.15077787  0.51764400  0.81514719     0.93860
N1956       N  0.00243985  0.55857270  0.81259243    -0.08280
N1957       N  0.47758543  0.54276060  0.80841436    -0.60790
N1958       N  0.02745119  0.58790729  0.84094361    -0.06400
N1959       N  0.01930239  0.58757572  0.85382636    -0.62050
N1960       N  0.00285323  0.59983379  0.83401971    -0.08310
N1961       N  0.47755408  0.60769269  0.84204740    -0.61060
N1962       N  0.02635517  0.54603691  0.81965643    -0.06040
N1963       N  0.01827282  0.52153792  0.82028776    -0.62130
Mn1964     Mn  0.06903059  0.56585378  0.83069665     1.18440
C1965       C  0.48793747  0.51971857  0.81319718     0.96160
C1966       C  0.48820167  0.60017340  0.85439804     0.96830
N1967       N  0.13105336  0.59246535  0.78945913    -0.08330
N1968       N  0.13772665  0.57100480  0.78301816    -0.64640
N1969       N  0.11527425  0.65139153  0.80328420    -0.07130
N1970       N  0.12370535  0.67583491  0.80266559    -0.65310
N1971       N  0.13973334  0.63845524  0.80960251    -0.07840
N1972       N  0.16541822  0.65381234  0.81354459    -0.64900
N1973       N  0.10753787  0.60594192  0.78278367    -0.06730
N1974       N  0.09832093  0.59381003  0.77167768    -0.65590
Mn1975     Mn  0.13650500  0.59674282  0.81128282     1.10660
C1976       C  0.11734922  0.57206069  0.77188611     0.97380
C1977       C  0.15499043  0.67712248  0.80917715     0.97460
N1978       N  0.00676973  0.64216838  0.81162630    -0.07850
N1979       N  0.48304962  0.65804419  0.81619775    -0.63220
N1980       N  0.02982784  0.61228341  0.78341849    -0.07160
N1981       N  0.02376182  0.61820374  0.77090520    -0.59950
N1982       N  0.00123655  0.60400234  0.78938433    -0.08470
N1983       N  0.47415859  0.60643142  0.78091790    -0.62790
N1984       N  0.03129248  0.65437580  0.80479521    -0.07460
N1985       N  0.02412215  0.67914453  0.80451297    -0.59970
Mn1986     Mn  0.00239529  0.60084366  0.81184853     1.20190
Mn1987     Mn  0.07152770  0.63173837  0.79353962     1.10090
Cl1988     Cl  0.06971847  0.59884840  0.81197337    -0.87940
C1989       C  0.49405300  0.68105314  0.81181811     0.94390
C1990       C  0.98922905  0.61458621  0.76924157     0.94190
N1991       N  0.12473739  0.96912907  0.67137450    -0.08100
N1992       N  0.09868018  0.97597427  0.66329071    -0.60220
N1993       N  0.15069195  0.91676113  0.68667219    -0.07780
N1994       N  0.14310331  0.89221042  0.68629188    -0.62340
N1995       N  0.12680134  0.92922551  0.69363725    -0.07370
N1996       N  0.10233127  0.91321802  0.69795419    -0.60190
N1997       N  0.14934510  0.95723568  0.66459207    -0.07050
N1998       N  0.14052694  0.95593250  0.65178156    -0.62700
C1999       C  0.10898217  0.96786477  0.65107467     0.94080
C2000       C  0.11306819  0.89019199  0.69339652     0.93860
N2001       N  0.25890459  0.92721919  0.69184489    -0.08280
N2002       N  0.28479298  0.91197160  0.69538764    -0.60790
N2003       N  0.23388366  0.95770880  0.66436532    -0.06400
N2004       N  0.24154963  0.95744161  0.65149488    -0.62050
N2005       N  0.25910592  0.96933583  0.67114948    -0.08310
N2006       N  0.28445220  0.97695248  0.66309061    -0.61060
N2007       N  0.23449260  0.91476910  0.68517169    -0.06040
N2008       N  0.24365413  0.89051231  0.68393276    -0.62130
Mn2009     Mn  0.19192013  0.93619847  0.67490427     1.18440
C2010       C  0.27502310  0.88910708  0.69050398     0.96160
C2011       C  0.27298418  0.96969402  0.65087311     0.96830
N2012       N  0.12598458  0.97656273  0.71599865    -0.08330
N2013       N  0.09945144  0.98089652  0.72441272    -0.64640
N2014       N  0.15478665  0.52542141  0.69928625    -0.07130
N2015       N  0.14756973  0.55014521  0.69929704    -0.65310
N2016       N  0.12973179  0.51293218  0.69286144    -0.07840
N2017       N  0.10546603  0.52861001  0.68832445    -0.64900
N2018       N  0.15525139  0.98474467  0.72159148    -0.06730
N2019       N  0.15007122  0.99234066  0.73386777    -0.65590
Mn2020     Mn  0.12581338  0.97160600  0.69353714     1.10660
C2021       C  0.11547323  0.99001729  0.73573376     0.97380
C2022       C  0.11684597  0.55176919  0.69228308     0.97460
N2023       N  0.26285678  0.51023708  0.69404160    -0.07850
N2024       N  0.28843907  0.52576645  0.69018137    -0.63220
N2025       N  0.23302166  0.97865663  0.72152155    -0.07160
N2026       N  0.22388099  0.96663801  0.73267910    -0.59950
N2027       N  0.25624893  0.96500869  0.71494454    -0.08470
N2028       N  0.26267651  0.94350122  0.72151748    -0.62790
N2029       N  0.23837842  0.52302159  0.70027334    -0.07460
N2030       N  0.24658248  0.54745367  0.70088459    -0.59970
Mn2031     Mn  0.26034397  0.96840038  0.69304896     1.20190
Mn2032     Mn  0.19593380  0.00360275  0.71064442     1.10090
Cl2033     Cl  0.19333784  0.97000587  0.69289588    -0.87940
C2034       C  0.27775873  0.54898041  0.69447842     0.94390
C2035       C  0.24245838  0.94473679  0.73259422     0.94190
N2036       N  0.38657771  0.84886208  0.83332924    -0.08100
N2037       N  0.41164071  0.85806445  0.84109136    -0.60220
N2038       N  0.36149061  0.79374712  0.82018387    -0.07780
N2039       N  0.37089087  0.76948924  0.82143613    -0.62340
N2040       N  0.38512893  0.80618948  0.81312427    -0.07370
N2041       N  0.41064535  0.79096843  0.80935104    -0.60190
N2042       N  0.36201653  0.83740841  0.84049659    -0.07050
N2043       N  0.36989133  0.83882274  0.85335760    -0.62700
C2044       C  0.40075296  0.85190768  0.85352855     0.94080
C2045       C  0.40154061  0.76810573  0.81448166     0.93860
N2046       N  0.25307555  0.80794936  0.81232441    -0.08280
N2047       N  0.22855856  0.79204874  0.80796219    -0.60790
N2048       N  0.27731148  0.83671116  0.84096769    -0.06400
N2049       N  0.26920801  0.83620867  0.85385667    -0.62050
N2050       N  0.25256135  0.84858819  0.83408637    -0.08310
N2051       N  0.22723401  0.85624736  0.84215366    -0.61060
N2052       N  0.27709107  0.79541683  0.81934813    -0.06040
N2053       N  0.26938959  0.77083140  0.81976198    -0.62130
Mn2054     Mn  0.31940360  0.81526502  0.83062428     1.18440
C2055       C  0.23919811  0.76896046  0.81258174     0.96160
C2056       C  0.23798053  0.84864210  0.85447823     0.96830
N2057       N  0.38132545  0.84365595  0.78964794    -0.08330
N2058       N  0.38835211  0.82239877  0.78308460    -0.64640
N2059       N  0.36442308  0.90198781  0.80396796    -0.07130
N2060       N  0.37246370  0.92651021  0.80352192    -0.65310
N2061       N  0.38906994  0.88909047  0.81019074    -0.07840
N2062       N  0.41451227  0.90454931  0.81424500    -0.64900
N2063       N  0.35755557  0.85704620  0.78306540    -0.06730
N2064       N  0.34847691  0.84503269  0.77190270    -0.65590
Mn2065     Mn  0.38647817  0.84732339  0.81149287     1.10660
C2066       C  0.36789281  0.82345791  0.77197806     0.97380
C2067       C  0.40371416  0.92788508  0.81004851     0.97460
N2068       N  0.25590356  0.89161911  0.81203608    -0.07850
N2069       N  0.23201584  0.90724961  0.81673424    -0.63220
N2070       N  0.27986927  0.86283741  0.78365624    -0.07160
N2071       N  0.27404069  0.86889722  0.77114606    -0.59950
N2072       N  0.25135252  0.85399626  0.78944818    -0.08470
N2073       N  0.22447904  0.85609984  0.78085911    -0.62790
N2074       N  0.28050815  0.90417344  0.80542255    -0.07460
N2075       N  0.27327301  0.92891836  0.80542621    -0.59970
Mn2076     Mn  0.25220950  0.85023347  0.81189677     1.20190
Mn2077     Mn  0.32114460  0.88223180  0.79403021     1.10090
Cl2078     Cl  0.31948080  0.84878091  0.81225086    -0.87940
C2079       C  0.24305721  0.93046346  0.81266219     0.94390
C2080       C  0.23970206  0.86469826  0.76929276     0.94190
C2081       C  0.21507112  0.92496625  0.75319674    -0.15320
C2082       C  0.23390873  0.92225266  0.74118839     0.06830
C2083       C  0.24374333  0.89759181  0.73722934    -0.15320
C2084       C  0.23801952  0.87657356  0.74567568    -0.15320
C2085       C  0.22328050  0.87974394  0.75845593     0.06830
C2086       C  0.20985984  0.90390158  0.76176777    -0.15320
H2087       H  0.20639017  0.94365095  0.75637420     0.10810
H2088       H  0.25734398  0.89465963  0.72785709     0.10810
H2089       H  0.24943189  0.85838517  0.74296011     0.10810
H2090       H  0.19940037  0.90720683  0.77167670     0.10810
C2091       C  0.11963189  0.52493588  0.76746731    -0.15320
C2092       C  0.10972924  0.54952247  0.76322734     0.06830
C2093       C  0.09205713  0.55204172  0.75086180    -0.15320
C2094       C  0.08768008  0.53082467  0.74237250    -0.15320
C2095       C  0.10042980  0.00661205  0.74616928     0.06830
C2096       C  0.11471267  0.00379168  0.75911638    -0.15320
H2097       H  0.13254031  0.52213584  0.77705546     0.10810
H2098       H  0.08357466  0.57067638  0.74739760     0.10810
H2099       H  0.07788466  0.53393274  0.73229434     0.10810
H2100       H  0.12585241  0.98563997  0.76218750     0.10810
C2101       C  0.47867024  0.97328067  0.81808424    -0.15320
C2102       C  0.46665049  0.99613390  0.81224285     0.06830
C2103       C  0.43354593  0.49647891  0.80592394    -0.15320
C2104       C  0.41286784  0.97437365  0.80541252    -0.15320
C2105       C  0.42495716  0.95147686  0.81117430     0.06830
C2106       C  0.45800812  0.95114462  0.81754814    -0.15320
H2107       H  0.00401515  0.97250377  0.82308475     0.10810
H2108       H  0.42352996  0.51386624  0.80141156     0.10810
H2109       H  0.38752588  0.97517775  0.80041626     0.10810
H2110       H  0.46799640  0.93374514  0.82205807     0.10810
C2111       C  0.20950051  0.70023759  0.81662647    -0.15320
C2112       C  0.17645815  0.70062631  0.81024002     0.06830
C2113       C  0.16446595  0.72354401  0.80447720    -0.15320
C2114       C  0.18513313  0.74564324  0.80505720    -0.15320
C2115       C  0.21814834  0.74528572  0.81144478     0.06830
C2116       C  0.23016609  0.72237771  0.81722902    -0.15320
H2117       H  0.21942947  0.68281279  0.82112902     0.10810
H2118       H  0.13914926  0.72439332  0.79946501     0.10810
H2119       H  0.17512471  0.76306032  0.80057526     0.10810
H2120       H  0.25545386  0.72158418  0.82227125     0.10810
C2121       C  0.16599578  0.97264155  0.82160869    -0.15320
C2122       C  0.17442098  0.99530279  0.81483365     0.06830
C2123       C  0.20666723  0.49700317  0.80793540    -0.15320
C2124       C  0.22972662  0.97629156  0.80758267    -0.15320
C2125       C  0.22095426  0.95343748  0.81410052     0.06830
C2126       C  0.18907176  0.95190678  0.82125158    -0.15320
H2127       H  0.14157932  0.97089542  0.82709936     0.10810
H2128       H  0.21405872  0.51435175  0.80268850     0.10810
H2129       H  0.25397223  0.97798274  0.80197970     0.10810
H2130       H  0.18159630  0.93447029  0.82640289     0.10810
C2131       C  0.47998803  0.72664645  0.80620167    -0.15320
C2132       C  0.47194222  0.70406243  0.81311622     0.06830
C2133       C  0.44062276  0.70272626  0.82061965    -0.15320
C2134       C  0.41744294  0.72336134  0.82099652    -0.15320
C2135       C  0.42518468  0.74579522  0.81391428     0.06830
C2136       C  0.45680382  0.74732079  0.80659647    -0.15320
H2137       H  0.00375880  0.72815664  0.80030060     0.10810
H2138       H  0.43368038  0.68551529  0.82607796     0.10810
H2139       H  0.39353675  0.72175302  0.82681108     0.10810
H2140       H  0.46360027  0.76450287  0.80108718     0.10810
C2141       C  0.36594553  0.75521050  0.75917440    -0.15320
C2142       C  0.35128755  0.75789327  0.74627989     0.06830
C2143       C  0.33824967  0.78203636  0.74249636    -0.15320
C2144       C  0.34253653  0.80330174  0.75097091    -0.15320
C2145       C  0.36047511  0.80091149  0.76329138     0.06830
C2146       C  0.37081092  0.77639657  0.76749493    -0.15320
H2147       H  0.37733123  0.73712894  0.76222917     0.10810
H2148       H  0.32817836  0.78505150  0.73245025     0.10810
H2149       H  0.33373010  0.82187461  0.74753410     0.10810
H2150       H  0.38395794  0.77367837  0.77704305     0.10810
C2151       C  0.08371071  0.82185838  0.68822443    -0.15320
C2152       C  0.04984923  0.82215128  0.69377674     0.06830
C2153       C  0.03720526  0.84483492  0.69944697    -0.15320
C2154       C  0.05806834  0.86682742  0.69960591    -0.15320
C2155       C  0.09189660  0.86657324  0.69404705     0.06830
C2156       C  0.10457292  0.84389781  0.68835713    -0.15320
H2157       H  0.09414209  0.80459139  0.68385091     0.10810
H2158       H  0.01121834  0.84557961  0.70383723     0.10810
H2159       H  0.04755996  0.88408552  0.70395697     0.10810
H2160       H  0.13053434  0.84321895  0.68393555     0.10810
C2161       C  0.35384238  0.59432033  0.68841156    -0.15320
C2162       C  0.34128964  0.61693625  0.69420559     0.06830
C2163       C  0.30758611  0.61710742  0.69987954    -0.15320
C2164       C  0.28674385  0.59508197  0.69973441    -0.15320
C2165       C  0.29928384  0.57246425  0.69395265     0.06830
C2166       C  0.33301046  0.57227170  0.68828498    -0.15320
H2167       H  0.37969730  0.59368998  0.68389956     0.10810
H2168       H  0.29717557  0.63431661  0.70431629     0.10810
H2169       H  0.26086197  0.59574613  0.70421665     0.10810
H2170       H  0.34336898  0.55506821  0.68381967     0.10810
C2171       C  0.31315988  0.82380157  0.68395821    -0.15320
C2172       C  0.34537618  0.82512321  0.69098924     0.06830
C2173       C  0.35435815  0.84766399  0.69768627    -0.15320
C2174       C  0.33118264  0.86831878  0.69758680    -0.15320
C2175       C  0.29865951  0.86681522  0.69077404     0.06830
C2176       C  0.28997819  0.84444534  0.68386764    -0.15320
H2177       H  0.30552764  0.80660021  0.67868925     0.10810
H2178       H  0.37885442  0.84913696  0.70323040     0.10810
H2179       H  0.33869436  0.88545413  0.70293429     0.10810
H2180       H  0.26533161  0.84288680  0.67842787     0.10810
C2181       C  0.08082227  0.61807046  0.69755703    -0.15320
C2182       C  0.04804238  0.61650352  0.69093121     0.06830
C2183       C  0.03898471  0.59399265  0.68421709    -0.15320
C2184       C  0.06207885  0.57329028  0.68430324    -0.15320
C2185       C  0.09458779  0.57470413  0.69113171     0.06830
C2186       C  0.10390704  0.59736710  0.69764866    -0.15320
H2187       H  0.08863273  0.63530741  0.70275249     0.10810
H2188       H  0.01411533  0.59237085  0.67893177     0.10810
H2189       H  0.05417151  0.55598954  0.67918262     0.10810
H2190       H  0.12864386  0.59892289  0.70302898     0.10810
C2191       C  0.99306845  0.64777635  0.73725050    -0.15320
C2192       C  0.98382784  0.67249883  0.74131020     0.06830
C2193       C  0.46542839  0.67531710  0.75340639    -0.15320
C2194       C  0.46008523  0.65423819  0.76195360    -0.15320
C2195       C  0.97290639  0.62997019  0.75851801     0.06830
C2196       C  0.98718752  0.62675064  0.74566823    -0.15320
H2197       H  0.00631137  0.64478089  0.72780916     0.10810
H2198       H  0.45722022  0.69406668  0.75666102     0.10810
H2199       H  0.45000457  0.65756544  0.77191742     0.10810
H2200       H  0.99813688  0.60846552  0.74285698     0.10810
C2201       C  0.10319399  0.71889028  0.62908513    -0.15320
C2202       C  0.08771993  0.71864060  0.61634194     0.06830
C2203       C  0.05089137  0.71990776  0.61503474    -0.15320
C2204       C  0.02968129  0.72056957  0.62635992    -0.15320
C2205       C  0.04510560  0.72072318  0.63910644     0.06830
C2206       C  0.08198392  0.72030406  0.64041812    -0.15320
H2207       H  0.13153033  0.71789674  0.63026065     0.10810
H2208       H  0.03841157  0.71953133  0.60526032     0.10810
H2209       H  0.00131149  0.72081114  0.62517566     0.10810
H2210       H  0.09435913  0.72016424  0.65021171     0.10810
C2211       C  0.27831333  0.71722434  0.62864538    -0.15320
C2212       C  0.29348101  0.71693531  0.61584710     0.06830
C2213       C  0.33037823  0.71816449  0.61476756    -0.15320
C2214       C  0.35171613  0.71880508  0.62626304    -0.15320
C2215       C  0.33655708  0.71906915  0.63906009     0.06830
C2216       C  0.29963034  0.71868739  0.64013258    -0.15320
H2217       H  0.24998180  0.71629025  0.62976026     0.10810
H2218       H  0.34279481  0.71780713  0.60503095     0.10810
H2219       H  0.38007675  0.71903928  0.62515716     0.10810
H2220       H  0.28725096  0.71866391  0.64987903     0.10810
C2221       C  0.35295523  0.96871434  0.62870711    -0.15320
C2222       C  0.33730070  0.96796667  0.61599348     0.06830
C2223       C  0.30044207  0.96901482  0.61477365    -0.15320
C2224       C  0.27940682  0.96995593  0.62614746    -0.15320
C2225       C  0.29499975  0.97060116  0.63886668     0.06830
C2226       C  0.33190593  0.97040124  0.64008658    -0.15320
H2227       H  0.38131827  0.96791547  0.62982541     0.10810
H2228       H  0.28780994  0.96827012  0.60503408     0.10810
H2229       H  0.25101895  0.97001053  0.62502037     0.10810
H2230       H  0.34443525  0.97063638  0.64985077     0.10810
C2231       C  0.02822673  0.96664444  0.62843812    -0.15320
C2232       C  0.04339983  0.96660808  0.61563468     0.06830
C2233       C  0.08029934  0.96793648  0.61457702    -0.15320
C2234       C  0.10162124  0.96849130  0.62608482    -0.15320
C2235       C  0.08645507  0.96857150  0.63888397     0.06830
C2236       C  0.04952343  0.96802480  0.63994066    -0.15320
H2237       H  0.49989879  0.96561152  0.62954545     0.10810
H2238       H  0.09273601  0.96775819  0.60484278     0.10810
H2239       H  0.12998115  0.96884663  0.62498507     0.10810
H2240       H  0.03712730  0.96784819  0.64968459     0.10810
C2241       C  0.02936095  0.83858538  0.56797782    -0.15320
C2242       C  0.04077902  0.86117268  0.56166900     0.06830
C2243       C  0.07366491  0.86149737  0.55529044    -0.15320
C2244       C  0.09461804  0.83957540  0.55514989    -0.15320
C2245       C  0.08302002  0.81693588  0.56137229     0.06830
C2246       C  0.05027362  0.81669769  0.56783347    -0.15320
H2247       H  0.00423984  0.83780779  0.57304798     0.10810
H2248       H  0.08323904  0.87869747  0.55043216     0.10810
H2249       H  0.11973213  0.84029088  0.55006963     0.10810
H2250       H  0.04063917  0.79951650  0.57269283     0.10810
C2251       C  0.29895616  0.56583839  0.56777481    -0.15320
C2252       C  0.33184990  0.56618120  0.56141334     0.06830
C2253       C  0.34369766  0.58899033  0.55543682    -0.15320
C2254       C  0.32287070  0.61095784  0.55570173    -0.15320
C2255       C  0.28984264  0.61055320  0.56197331     0.06830
C2256       C  0.27815864  0.58780691  0.56805547    -0.15320
H2257       H  0.28913290  0.54852537  0.57244633     0.10810
H2258       H  0.36893044  0.58981303  0.55044515     0.10810
H2259       H  0.33267274  0.62826890  0.55102059     0.10810
H2260       H  0.25291739  0.58696773  0.57303645     0.10810
C2261       C  0.02753823  0.59080692  0.55540933    -0.15320
C2262       C  0.03663168  0.56783189  0.56172528     0.06830
C2263       C  0.06901814  0.56618219  0.56864589    -0.15320
C2264       C  0.09192918  0.58706648  0.56921943    -0.15320
C2265       C  0.08284375  0.61004090  0.56291597     0.06830
C2266       C  0.05046281  0.61172959  0.55599896    -0.15320
H2267       H  0.00296414  0.59253202  0.54994180     0.10810
H2268       H  0.07685220  0.54862673  0.57359094     0.10810
H2269       H  0.11654132  0.58529079  0.57466379     0.10810
H2270       H  0.04271810  0.62930443  0.55105336     0.10810
C2271       C  0.30486416  0.85950223  0.55386465    -0.15320
C2272       C  0.33465405  0.85904360  0.56232933     0.06830
C2273       C  0.34080550  0.83753261  0.57035943    -0.15320
C2274       C  0.31743295  0.81689586  0.56998818    -0.15320
C2275       C  0.28757878  0.81736751  0.56155532     0.06830
C2276       C  0.28148838  0.83884428  0.55348582    -0.15320
H2277       H  0.29951271  0.87592980  0.54754838     0.10810
H2278       H  0.36329688  0.83681859  0.57705858     0.10810
H2279       H  0.32282768  0.80047631  0.57630431     0.10810
H2280       H  0.25902524  0.83952688  0.54677503     0.10810
C2281       C  0.24405176  0.77890197  0.49116543    -0.15320
C2282       C  0.25320624  0.80229774  0.49706937     0.06830
C2283       C  0.26918972  0.80193032  0.50982718    -0.15320
C2284       C  0.27601549  0.77878658  0.51645892    -0.15320
C2285       C  0.26729014  0.75538987  0.51043663     0.06830
C2286       C  0.25138277  0.75581774  0.49767934    -0.15320
H2287       H  0.23356910  0.77838133  0.48105785     0.10810
H2288       H  0.27818537  0.81959009  0.51433523     0.10810
H2289       H  0.28642403  0.77923474  0.52657478     0.10810
H2290       H  0.24277470  0.73815541  0.49306584     0.10810
C2291       C  0.40770752  0.90513701  0.49022510    -0.15320
C2292       C  0.39066647  0.88148365  0.49196871     0.06830
C2293       C  0.36824525  0.87829498  0.50305862    -0.15320
C2294       C  0.36298925  0.89817927  0.51216870    -0.15320
C2295       C  0.38006911  0.92180469  0.51046354     0.06830
C2296       C  0.40254016  0.92503438  0.49938394    -0.15320
H2297       H  0.42480073  0.90834194  0.48172755     0.10810
H2298       H  0.35439125  0.86042270  0.50465403     0.10810
H2299       H  0.34583050  0.89492984  0.52064271     0.10810
H2300       H  0.41637572  0.94292947  0.49783340     0.10810
C2301       C  0.51433491  0.55334382  0.50888565    -0.15320
C2302       C  0.99919604  0.55282951  0.49597220     0.06830
C2303       C  0.99185637  0.52895367  0.49023420    -0.15320
C2304       C  0.00010702  0.50632273  0.49706360    -0.15320
C2305       C  0.01540435  0.50679280  0.50993507     0.06830
C2306       C  0.52224668  0.53065567  0.51579249    -0.15320
H2307       H  0.52194706  0.57141204  0.51331012     0.10810
H2308       H  0.98206704  0.52776267  0.48004594     0.10810
H2309       H  0.99282167  0.98825442  0.49256242     0.10810
H2310       H  0.53203921  0.53177116  0.52598117     0.10810
C2311       C  0.48593330  0.71476366  0.43486049    -0.15320
C2312       C  0.47530600  0.69253235  0.44169013     0.06830
C2313       C  0.44282360  0.69227885  0.44834234    -0.15320
C2314       C  0.42147305  0.71392416  0.44826809    -0.15320
C2315       C  0.43226710  0.73625126  0.44157176     0.06830
C2316       C  0.46458597  0.73644459  0.43480348    -0.15320
H2317       H  0.01073401  0.71541251  0.42956408     0.10810
H2318       H  0.43384928  0.67533142  0.45359477     0.10810
H2319       H  0.39671110  0.71325952  0.45359295     0.10810
H2320       H  0.47356314  0.75343231  0.42958667     0.10810
C2321       C  0.19172620  0.94209695  0.45020764    -0.15320
C2322       C  0.22438374  0.94238594  0.44367630     0.06830
C2323       C  0.23511116  0.96462836  0.43687745    -0.15320
C2324       C  0.21377132  0.98627213  0.43673089    -0.15320
C2325       C  0.18130340  0.98610048  0.44338227     0.06830
C2326       C  0.17033358  0.96377045  0.45004965    -0.15320
H2327       H  0.18267611  0.92512207  0.45541520     0.10810
H2328       H  0.26002714  0.96532989  0.43165938     0.10810
H2329       H  0.22288799  0.50323153  0.43152213     0.10810
H2330       H  0.14543251  0.96313949  0.45527958     0.10810
C2331       C  0.44393973  0.98782299  0.43626863    -0.15320
C2332       C  0.47678654  0.98590340  0.44286235     0.06830
C2333       C  0.48700309  0.96231542  0.44822440    -0.15320
C2334       C  0.46473349  0.94109762  0.44706099    -0.15320
C2335       C  0.43182756  0.94305842  0.44052566     0.06830
C2336       C  0.42165294  0.96662610  0.43512864    -0.15320
H2337       H  0.43525429  0.50582653  0.43203125     0.10810
H2338       H  0.01199139  0.96031090  0.45338258     0.10810
H2339       H  0.47335339  0.92309388  0.45131403     0.10810
H2340       H  0.39661753  0.96865670  0.42999972     0.10810
C2341       C  0.17317766  0.71622432  0.43486177    -0.15320
C2342       C  0.18263530  0.69276440  0.44058100     0.06830
C2343       C  0.21515472  0.69082328  0.44741193    -0.15320
C2344       C  0.23763949  0.71194078  0.44859658    -0.15320
C2345       C  0.22801297  0.73546853  0.44300319     0.06830
C2346       C  0.19563735  0.73734955  0.43606290    -0.15320
H2347       H  0.14849324  0.71825645  0.42949224     0.10810
H2348       H  0.22329073  0.67291229  0.45190708     0.10810
H2349       H  0.26222857  0.70994825  0.45402863     0.10810
H2350       H  0.18743609  0.75529055  0.43161431     0.10810
C2351       C  0.15564796  0.65496885  0.49106333    -0.15320
C2352       C  0.13822327  0.63151491  0.49294298     0.06830
C2353       C  0.11577430  0.62864206  0.50403077    -0.15320
C2354       C  0.11084943  0.64872709  0.51302804    -0.15320
C2355       C  0.12827368  0.67217619  0.51116101     0.06830
C2356       C  0.15075855  0.67505914  0.50007990    -0.15320
H2357       H  0.17277240  0.65789670  0.48254800     0.10810
H2358       H  0.10167768  0.61089339  0.50570187     0.10810
H2359       H  0.09369999  0.64578023  0.52153338     0.10810
H2360       H  0.16484650  0.69281724  0.49842545     0.10810
C2361       C  0.40759722  0.60239729  0.87678378    -0.15320
C2362       C  0.42261464  0.60195577  0.88966326     0.06830
C2363       C  0.45957211  0.60203022  0.89088545    -0.15320
C2364       C  0.48101057  0.60160900  0.87945613    -0.15320
C2365       C  0.46593617  0.60194345  0.86657429     0.06830
C2366       C  0.42901294  0.60279993  0.86537765    -0.15320
H2367       H  0.37924870  0.60234130  0.87553704     0.10810
H2368       H  0.47188888  0.60152358  0.90068617     0.10810
H2369       H  0.00934779  0.60094921  0.88068086     0.10810
H2370       H  0.41660801  0.60292003  0.85558996     0.10810
C2371       C  0.21017838  0.60546965  0.86389019    -0.15320
C2372       C  0.17331324  0.60552619  0.86512219     0.06830
C2373       C  0.15802242  0.60675799  0.87780916    -0.15320
C2374       C  0.17934386  0.60736985  0.88917813    -0.15320
C2375       C  0.21616322  0.60599843  0.88799793     0.06830
C2376       C  0.23152280  0.60532745  0.87529551    -0.15320
H2377       H  0.22244436  0.60437021  0.85414288     0.10810
H2378       H  0.12966046  0.60684036  0.87892535     0.10810
H2379       H  0.16692489  0.60775817  0.89891530     0.10810
H2380       H  0.25984982  0.60427303  0.87421430     0.10810
C2381       C  0.20960772  0.85068978  0.89101761    -0.15320
C2382       C  0.17264251  0.85099731  0.88982741     0.06830
C2383       C  0.15757191  0.85146547  0.87695689    -0.15320
C2384       C  0.17892068  0.85159096  0.86553279    -0.15320
C2385       C  0.21583378  0.85043213  0.86669343     0.06830
C2386       C  0.23097484  0.85000089  0.87956662    -0.15320
H2387       H  0.22196688  0.85013305  0.90080999     0.10810
H2388       H  0.12922077  0.85168082  0.87572991     0.10810
H2389       H  0.16645176  0.85179578  0.85575715     0.10810
H2390       H  0.25930554  0.84911126  0.88076857     0.10810
C2391       C  0.48093326  0.85592441  0.87569583    -0.15320
C2392       C  0.46550743  0.85605031  0.88839443     0.06830
C2393       C  0.42864367  0.85662776  0.88955606    -0.15320
C2394       C  0.40739500  0.85579891  0.87816118    -0.15320
C2395       C  0.42278006  0.85514851  0.86547107     0.06830
C2396       C  0.45964633  0.85586104  0.86427373    -0.15320
H2397       H  0.00929908  0.85547074  0.87462878     0.10810
H2398       H  0.41619495  0.85656079  0.89929139     0.10810
H2399       H  0.37903378  0.85528888  0.87925775     0.10810
H2400       H  0.47200971  0.85522911  0.85453111     0.10810
C2401       C  0.47153617  0.97530571  0.94991193    -0.15320
C2402       C  0.46004414  0.95280532  0.94360845     0.06830
C2403       C  0.42725891  0.95263403  0.93704550    -0.15320
C2404       C  0.40619133  0.97444912  0.93689213    -0.15320
C2405       C  0.41749969  0.49688105  0.94329433     0.06830
C2406       C  0.45043008  0.49714490  0.94976578    -0.15320
H2407       H  0.99667341  0.97596751  0.95506778     0.10810
H2408       H  0.41771012  0.93555739  0.93212034     0.10810
H2409       H  0.38104550  0.97373900  0.93174595     0.10810
H2410       H  0.45992923  0.51423734  0.95469166     0.10810
C2411       C  0.15551206  0.72413403  0.93662000    -0.15320
C2412       C  0.16692271  0.74650694  0.94305403     0.06830
C2413       C  0.19998501  0.74676113  0.94941743    -0.15320
C2414       C  0.22112999  0.72497044  0.94943778    -0.15320
C2415       C  0.20954656  0.70251572  0.94312042     0.06830
C2416       C  0.17663285  0.70234205  0.93665276    -0.15320
H2417       H  0.13025488  0.72345449  0.93155238     0.10810
H2418       H  0.20956470  0.76381339  0.95435934     0.10810
H2419       H  0.24637101  0.72563187  0.95451960     0.10810
H2420       H  0.16702796  0.68528549  0.93172360     0.10810
C2421       C  0.40433350  0.72679300  0.94890700    -0.15320
C2422       C  0.41395823  0.70365898  0.94303207     0.06830
C2423       C  0.44654004  0.70203875  0.93637196    -0.15320
C2424       C  0.46917374  0.72307993  0.93566485    -0.15320
C2425       C  0.45962273  0.74617789  0.94157792     0.06830
C2426       C  0.42697934  0.74786466  0.94818698    -0.15320
H2427       H  0.37956475  0.72852771  0.95414371     0.10810
H2428       H  0.45476703  0.68437845  0.93175775     0.10810
H2429       H  0.99399815  0.72129649  0.93046586     0.10810
H2430       H  0.41884297  0.76553401  0.95281697     0.10810
C2431       C  0.19649132  0.95190048  0.93604417    -0.15320
C2432       C  0.16464082  0.95329882  0.94320978     0.06830
C2433       C  0.15583284  0.97617571  0.94953083    -0.15320
C2434       C  0.17853258  0.49720935  0.94874352    -0.15320
C2435       C  0.21042360  0.49576845  0.94161174     0.06830
C2436       C  0.21918956  0.97291799  0.93526547    -0.15320
H2437       H  0.20406339  0.93444062  0.93107230     0.10810
H2438       H  0.13167667  0.47772851  0.95517903     0.10810
H2439       H  0.17102354  0.51466694  0.95373276     0.10810
H2440       H  0.24339532  0.97133528  0.92964555     0.10810
C2441       C  0.28276508  0.53892767  0.01371963    -0.15320
C2442       C  0.26514793  0.51553250  0.01189331     0.06830
C2443       C  0.24255160  0.51291213  0.00074985    -0.15320
C2444       C  0.23776549  0.53312022  0.99164830    -0.15320
C2445       C  0.25542693  0.55649929  0.99345764     0.06830
C2446       C  0.27798962  0.55913916  0.00461152    -0.15320
H2447       H  0.30003145  0.54170450  0.02225503     0.10810
H2448       H  0.22830038  0.99523817  0.99909617     0.10810
H2449       H  0.22051360  0.53032722  0.98311027     0.10810
H2450       H  0.29225934  0.57680997  0.00625351     0.10810
C2451       C  0.14316289  0.93357410  0.99678844    -0.15320
C2452       C  0.12813872  0.93289392  0.00964928     0.06830
C2453       C  0.12152868  0.90894891  0.01555051    -0.15320
C2454       C  0.12979860  0.88638616  0.00878922    -0.15320
C2455       C  0.14467804  0.88707515  0.99590094     0.06830
C2456       C  0.15149274  0.91102209  0.99004078    -0.15320
H2457       H  0.15029576  0.95171987  0.99226580     0.10810
H2458       H  0.11194033  0.90768004  0.02573354     0.10810
H2459       H  0.12258353  0.86824241  0.01329609     0.10810
H2460       H  0.16105932  0.91230706  0.97985486     0.10810
C2461       C  0.39274366  0.68630521  0.99620456    -0.15320
C2462       C  0.37753482  0.68577925  0.00904009     0.06830
C2463       C  0.36966731  0.66192605  0.01480672    -0.15320
C2464       C  0.37756605  0.63929174  0.00808098    -0.15320
C2465       C  0.39300538  0.63978198  0.99529432     0.06830
C2466       C  0.40038664  0.66363291  0.98942005    -0.15320
H2467       H  0.40071921  0.70434895  0.99177446     0.10810
H2468       H  0.35976924  0.66073177  0.02494987     0.10810
H2469       H  0.36984465  0.62124191  0.01257015     0.10810
H2470       H  0.41029105  0.66476955  0.97927848     0.10810
C2471       C  0.09314532  0.61764325  0.06975163    -0.15320
C2472       C  0.06122836  0.61786816  0.06258527     0.06830
C2473       C  0.05055746  0.59569281  0.05578069    -0.15320
C2474       C  0.07162706  0.57382989  0.05600392    -0.15320
C2475       C  0.10373071  0.57369737  0.06305879     0.06830
C2476       C  0.11418492  0.59577791  0.06998890    -0.15320
H2477       H  0.10203526  0.63444956  0.07508856     0.10810
H2478       H  0.02611783  0.59531814  0.05015099     0.10810
H2479       H  0.06277465  0.55703598  0.05064651     0.10810
H2480       H  0.13865289  0.59617996  0.07559689     0.10810
C2481       C  0.36499770  0.84654449  0.06912929    -0.15320
C2482       C  0.35400790  0.82418576  0.06258375     0.06830
C2483       C  0.32139439  0.82397565  0.05588359    -0.15320
C2484       C  0.30031959  0.84580667  0.05561913    -0.15320
C2485       C  0.31153706  0.86826391  0.06201820     0.06830
C2486       C  0.34396209  0.86838041  0.06884423    -0.15320
H2487       H  0.38988702  0.84719237  0.07445641     0.10810
H2488       H  0.31212909  0.80693338  0.05084994     0.10810
H2489       H  0.27545515  0.84518472  0.05027336     0.10810
H2490       H  0.35326400  0.88543098  0.07386177     0.10810
C2491       C  0.36547425  0.59440588  0.05614202    -0.15320
C2492       C  0.35670652  0.61743551  0.06230516     0.06830
C2493       C  0.32499225  0.61892647  0.06957219    -0.15320
C2494       C  0.30235706  0.59787287  0.07056734    -0.15320
C2495       C  0.31101879  0.57489836  0.06432160     0.06830
C2496       C  0.34283016  0.57336331  0.05712783    -0.15320
H2497       H  0.38951746  0.59275342  0.05043384     0.10810
H2498       H  0.31746302  0.63649814  0.07444682     0.10810
H2499       H  0.27823259  0.59955195  0.07622940     0.10810
H2500       H  0.35031156  0.55582340  0.05221389     0.10810
C2501       C  0.11384308  0.84464443  0.05496390    -0.15320
C2502       C  0.10747936  0.86687317  0.06226956     0.06830
C2503       C  0.07774166  0.86776531  0.07067894    -0.15320
C2504       C  0.05469449  0.84694716  0.07169809    -0.15320
C2505       C  0.06098313  0.82475856  0.06435800     0.06830
C2506       C  0.09079895  0.82380240  0.05599500    -0.15320
H2507       H  0.13622411  0.84351501  0.04832054     0.10810
H2508       H  0.07210080  0.88470381  0.07645544     0.10810
H2509       H  0.03222959  0.84812680  0.07830214     0.10810
H2510       H  0.09635128  0.80687607  0.05019611     0.10810
C2511       C  0.03367706  0.78875799  0.01424716    -0.15320
C2512       C  0.01589423  0.76539499  0.01251295     0.06830
C2513       C  0.49319920  0.76278881  0.00138683    -0.15320
C2514       C  0.48848279  0.78293973  0.99222747    -0.15320
C2515       C  0.00631727  0.80628063  0.99393885     0.06830
C2516       C  0.02899080  0.80891116  0.00507201    -0.15320
H2517       H  0.05103086  0.79154717  0.02275576     0.10810
H2518       H  0.47879663  0.74516023  0.99978934     0.10810
H2519       H  0.47112236  0.78013337  0.98372257     0.10810
H2520       H  0.04340151  0.82654228  0.00665287     0.10810
C2521       C  0.06446390  0.71632299  0.14163062    -0.15320
C2522       C  0.09622228  0.70274465  0.14052119     0.06830
C2523       C  0.10573246  0.69256674  0.12812624    -0.15320
C2524       C  0.08413089  0.69613948  0.11698045    -0.15320
C2525       C  0.05266034  0.71004892  0.11799389     0.06830
C2526       C  0.04279578  0.71995544  0.13042964    -0.15320
H2527       H  0.05645117  0.72424109  0.15113177     0.10810
H2528       H  0.12990331  0.68188538  0.12702189     0.10810
H2529       H  0.09240235  0.68825956  0.10750204     0.10810
H2530       H  0.01874627  0.73081279  0.13144519     0.10810
C2531       C  0.33652083  0.71512114  0.13877073    -0.15320
C2532       C  0.30359294  0.70283444  0.13743547     0.06830
C2533       C  0.29276612  0.69497724  0.12462732    -0.15320
C2534       C  0.31444291  0.69936511  0.11344900    -0.15320
C2535       C  0.34737905  0.71168040  0.11484945     0.06830
C2536       C  0.35808563  0.71945990  0.12765703    -0.15320
H2537       H  0.34584905  0.72138136  0.14848167     0.10810
H2538       H  0.26767744  0.68541784  0.12325653     0.10810
H2539       H  0.30535631  0.69317426  0.10369413     0.10810
H2540       H  0.38317160  0.72898194  0.12910734     0.10810
C2541       C  0.36442158  0.95363176  0.12636284    -0.15320
C2542       C  0.34967633  0.95208335  0.13913280     0.06830
C2543       C  0.31293310  0.95379485  0.14064552    -0.15320
C2544       C  0.29128412  0.95789188  0.12948688    -0.15320
C2545       C  0.30618297  0.95957355  0.11671651     0.06830
C2546       C  0.34279864  0.95700073  0.11522236    -0.15320
H2547       H  0.39265684  0.95243313  0.12501911     0.10810
H2548       H  0.30111017  0.95288951  0.15048500     0.10810
H2549       H  0.26312249  0.95978170  0.13081532     0.10810
H2550       H  0.35492271  0.95836464  0.10544895     0.10810
C2551       C  0.09647232  0.95294732  0.13942779    -0.15320
C2552       C  0.05957683  0.95162423  0.13823899     0.06830
C2553       C  0.04416541  0.95383502  0.12548366    -0.15320
C2554       C  0.06520564  0.95739742  0.11413887    -0.15320
C2555       C  0.10200734  0.95967271  0.11536679     0.06830
C2556       C  0.11746944  0.95733720  0.12811669    -0.15320
H2557       H  0.10899502  0.95155420  0.14916883     0.10810
H2558       H  0.01581212  0.95297306  0.12430523     0.10810
H2559       H  0.05256779  0.95921074  0.10443630     0.10810
H2560       H  0.14574423  0.95894669  0.12932944     0.10810
C2561       C  0.09712176  0.54591553  0.19539192    -0.15320
C2562       C  0.06015628  0.54699540  0.19572596     0.06830
C2563       C  0.04385852  0.57104545  0.19628079    -0.15320
C2564       C  0.06408979  0.59354607  0.19637895    -0.15320
C2565       C  0.10099572  0.59249510  0.19547375     0.06830
C2566       C  0.11730082  0.56843838  0.19504692    -0.15320
H2567       H  0.11037148  0.52767215  0.19481396     0.10810
H2568       H  0.01541295  0.57243770  0.19648595     0.10810
H2569       H  0.05078249  0.61180329  0.19659997     0.10810
H2570       H  0.14567220  0.56706921  0.19431249     0.10810
C2571       C  0.31084397  0.84436776  0.19153511    -0.15320
C2572       C  0.34777893  0.84344369  0.19098706     0.06830
C2573       C  0.36445716  0.81963827  0.19005855    -0.15320
C2574       C  0.34460435  0.79708294  0.18996755    -0.15320
C2575       C  0.30781241  0.79791896  0.19123170     0.06830
C2576       C  0.29103226  0.82175018  0.19186668    -0.15320
H2577       H  0.29741736  0.86251092  0.19234061     0.10810
H2578       H  0.39289734  0.81847797  0.18961605     0.10810
H2579       H  0.35816629  0.77894358  0.18952143     0.10810
H2580       H  0.26267784  0.82285499  0.19282364     0.10810
C2581       C  0.36559075  0.57366370  0.18867394    -0.15320
C2582       C  0.35152863  0.54902845  0.18964514     0.06830
C2583       C  0.31473440  0.54554545  0.18976466    -0.15320
C2584       C  0.29225272  0.56654459  0.18903661    -0.15320
C2585       C  0.30642157  0.59121506  0.18855212     0.06830
C2586       C  0.34317424  0.59464177  0.18830885    -0.15320
H2587       H  0.39381393  0.57669433  0.18847990     0.10810
H2588       H  0.30335029  0.52656594  0.19032833     0.10810
H2589       H  0.26400896  0.56358452  0.18920854     0.10810
H2590       H  0.35461710  0.61360883  0.18779281     0.10810
C2591       C  0.06648951  0.79497310  0.19704608    -0.15320
C2592       C  0.10318173  0.79908372  0.19673673     0.06830
C2593       C  0.11625108  0.82403507  0.19599156    -0.15320
C2594       C  0.09286715  0.84451863  0.19491951    -0.15320
C2595       C  0.05615345  0.84034951  0.19493174     0.06830
C2596       C  0.04314108  0.81547686  0.19633487    -0.15320
H2597       H  0.05581637  0.77579245  0.19775675     0.10810
H2598       H  0.14435425  0.82758813  0.19574840     0.10810
H2599       H  0.10354136  0.86367440  0.19408588     0.10810
H2600       H  0.01503996  0.81186537  0.19651382     0.10810
C2601       C  0.44828167  0.79755576  0.37409231    -0.15320
C2602       C  0.45151361  0.81653335  0.36423326     0.06830
C2603       C  0.42930770  0.83787464  0.36445729    -0.15320
C2604       C  0.40623629  0.84132650  0.37509424    -0.15320
C2605       C  0.40601548  0.82378765  0.38572615     0.06830
C2606       C  0.42593129  0.80135245  0.38491092    -0.15320
H2607       H  0.46520570  0.78094636  0.37406217     0.10810
H2608       H  0.43134164  0.85260300  0.35683725     0.10810
H2609       H  0.39106829  0.85877386  0.37559210     0.10810
H2610       H  0.42586424  0.78757789  0.39304611     0.10810
C2611       C  0.18949390  0.84505649  0.37149786    -0.15320
C2612       C  0.17315672  0.82120575  0.36953448     0.06830
C2613       C  0.18105602  0.80104146  0.37837537    -0.15320
C2614       C  0.20374481  0.80511087  0.38932329    -0.15320
C2615       C  0.21950672  0.82914803  0.39130364     0.06830
C2616       C  0.21269839  0.84888850  0.38216604    -0.15320
H2617       H  0.18392255  0.86099343  0.36487018     0.10810
H2618       H  0.16872777  0.78251778  0.37711970     0.10810
H2619       H  0.20879877  0.78961062  0.39628699     0.10810
H2620       H  0.22433791  0.86761992  0.38356603     0.10810
C2621       C  0.15540072  0.79171252  0.24965167    -0.15320
C2622       C  0.12287589  0.79977298  0.25447067     0.06830
C2623       C  0.09229175  0.78704863  0.24973704    -0.15320
C2624       C  0.09460339  0.76446728  0.24216681    -0.15320
C2625       C  0.12769109  0.75450171  0.23905604     0.06830
C2626       C  0.15780414  0.76949686  0.24204988    -0.15320
H2627       H  0.17945044  0.80069916  0.25316870     0.10810
H2628       H  0.06664644  0.79275854  0.25309838     0.10810
H2629       H  0.07088095  0.75396168  0.23965293     0.10810
H2630       H  0.18390293  0.76320896  0.23928950     0.10810
C2631       C  0.02921937  0.84475775  0.24395876    -0.15320
C2632       C  0.03637945  0.84838404  0.25757071     0.06830
C2633       C  0.55421246  0.87101207  0.26142810    -0.15320
C2634       C  0.06032514  0.89089107  0.25232598    -0.15320
C2635       C  0.04937386  0.88858705  0.23903747     0.06830
C2636       C  0.03594230  0.86468442  0.23475608    -0.15320
H2637       H  0.01560615  0.82769648  0.24064341     0.10810
H2638       H  0.56068540  0.87434817  0.27185200     0.10810
H2639       H  0.06981203  0.90908562  0.25603462     0.10810
H2640       H  0.02643917  0.86258617  0.22460461     0.10810
C2641       C  0.41210635  0.57313005  0.37952316    -0.15320
C2642       C  0.42688939  0.57161862  0.36668537     0.06830
C2643       C  0.46368725  0.57383009  0.36541433    -0.15320
C2644       C  0.48508809  0.57827260  0.37670959    -0.15320
C2645       C  0.47022126  0.57982286  0.38954864     0.06830
C2646       C  0.43355338  0.57677799  0.39083316    -0.15320
H2647       H  0.38386491  0.57161800  0.38080444     0.10810
H2648       H  0.47579062  0.57302880  0.35563038     0.10810
H2649       H  0.01323223  0.58049008  0.37541267     0.10810
H2650       H  0.42127821  0.57796888  0.40057447     0.10810
C2651       C  0.23070457  0.56987738  0.37877126    -0.15320
C2652       C  0.21545111  0.56863016  0.36604667     0.06830
C2653       C  0.17871770  0.57067764  0.36452331    -0.15320
C2654       C  0.15756377  0.57504228  0.37565521    -0.15320
C2655       C  0.17303039  0.57666552  0.38836083     0.06830
C2656       C  0.20958626  0.57356119  0.38987576    -0.15320
H2657       H  0.25896842  0.56844996  0.38009093     0.10810
H2658       H  0.16657751  0.57002471  0.35469446     0.10810
H2659       H  0.12941197  0.57731546  0.37435355     0.10810
H2660       H  0.22210138  0.57486499  0.39962001     0.10810
C2661       C  0.28208100  0.60660922  0.24993790    -0.15320
C2662       C  0.25932660  0.60803710  0.26097927     0.06830
C2663       C  0.23916420  0.63027631  0.26262902    -0.15320
C2664       C  0.24190042  0.65066659  0.25355633    -0.15320
C2665       C  0.26480966  0.64936460  0.24256386     0.06830
C2666       C  0.28473717  0.62702239  0.24081661    -0.15320
H2667       H  0.29814860  0.58983045  0.24842803     0.10810
H2668       H  0.22155195  0.63210832  0.27106390     0.10810
H2669       H  0.22589809  0.66745295  0.25513470     0.10810
H2670       H  0.30233867  0.62528442  0.23237702     0.10810
C2671       C  0.41830307  0.68714437  0.32311342    -0.15320
C2672       C  0.42261310  0.66890051  0.31295532     0.06830
C2673       C  0.44837498  0.67299427  0.30315962    -0.15320
C2674       C  0.46938158  0.69502901  0.30350173    -0.15320
C2675       C  0.46565514  0.71286629  0.31387698     0.06830
C2676       C  0.44002229  0.70872584  0.32368980    -0.15320
H2677       H  0.39874886  0.68438432  0.33084977     0.10810
H2678       H  0.45220383  0.65921140  0.29525463     0.10810
H2679       H  0.98923639  0.69777323  0.29587638     0.10810
H2680       H  0.43672512  0.72222990  0.33176579     0.10810
C2681       C  0.16601471  0.94001402  0.32510530    -0.15320
C2682       C  0.16950709  0.92016671  0.31579138     0.06830
C2683       C  0.19519578  0.92214939  0.30581015    -0.15320
C2684       C  0.21691313  0.94373948  0.30506952    -0.15320
C2685       C  0.21251933  0.96409208  0.31403152     0.06830
C2686       C  0.18700819  0.96198944  0.32410947    -0.15320
H2687       H  0.14615762  0.93894325  0.33283938     0.10810
H2688       H  0.19832661  0.90704683  0.29854377     0.10810
H2689       H  0.23633453  0.94488758  0.29718624     0.10810
H2690       H  0.18316565  0.97738598  0.33114996     0.10810
C2691       C  0.19403541  0.67663476  0.30458457    -0.15320
C2692       C  0.21861948  0.67270934  0.31492313     0.06830
C2693       C  0.21998794  0.69013706  0.32558436    -0.15320
C2694       C  0.19627790  0.71063318  0.32609434    -0.15320
C2695       C  0.17160259  0.71442658  0.31574988     0.06830
C2696       C  0.17113848  0.69746667  0.30489537    -0.15320
H2697       H  0.19235863  0.66344212  0.29628156     0.10810
H2698       H  0.23847804  0.68737768  0.33374782     0.10810
H2699       H  0.19719602  0.72349039  0.33455056     0.10810
H2700       H  0.15229068  0.69986531  0.29681677     0.10810
C2701       C  0.43623959  0.95700831  0.32580789    -0.15320
C2702       C  0.41142241  0.95881156  0.31535465     0.06830
C2703       C  0.40924740  0.93896442  0.30597056    -0.15320
C2704       C  0.43293814  0.91846576  0.30659738    -0.15320
C2705       C  0.45840087  0.91713501  0.31684267     0.06830
C2706       C  0.45915525  0.93620951  0.32665177    -0.15320
H2707       H  0.43851984  0.97206281  0.33316711     0.10810
H2708       H  0.39054498  0.93996972  0.29776949     0.10810
H2709       H  0.43180470  0.90389155  0.29894898     0.10810
H2710       H  0.47861848  0.93568600  0.33461315     0.10810
C2711       C  0.42836151  0.50877185  0.26305344    -0.15320
C2712       C  0.41359762  0.53249852  0.25950004     0.06830
C2713       C  0.40010336  0.53560507  0.24648367    -0.15320
C2714       C  0.39785358  0.51490330  0.23774122    -0.15320
C2715       C  0.40957800  0.99056783  0.24170696     0.06830
C2716       C  0.42655054  0.98798515  0.25418724    -0.15320
H2717       H  0.43771898  0.50551056  0.27317822     0.10810
H2718       H  0.38760179  0.55339804  0.24360449     0.10810
H2719       H  0.38543223  0.51775776  0.22806539     0.10810
H2720       H  0.43633194  0.96954831  0.25742889     0.10810
N2721       N  0.75327899  0.07081186  0.29053070    -0.08100
N2722       N  0.74125525  0.08980975  0.28307832    -0.60220
N2723       N  0.77167135  0.01357284  0.30527125    -0.07780
N2724       N  0.76364764  0.48903600  0.30526227    -0.62340
N2725       N  0.74789900  0.02664562  0.31176088    -0.07370
N2726       N  0.72322882  0.01118633  0.31650055    -0.60190
N2727       N  0.77685804  0.05763876  0.28391581    -0.07050
N2728       N  0.78126916  0.06763133  0.27182798    -0.62700
C2729       C  0.75861559  0.08755920  0.27136375     0.94080
C2730       C  0.73350556  0.48773892  0.31238609     0.93860
N2731       N  0.88063239  0.02208590  0.31267778    -0.08280
N2732       N  0.90356632  0.50562639  0.31756310    -0.60790
N2733       N  0.85627701  0.05132726  0.28401720    -0.06400
N2734       N  0.86225750  0.04440567  0.27167043    -0.62050
N2735       N  0.88516480  0.05975669  0.28984718    -0.08310
N2736       N  0.91208335  0.05672844  0.28149669    -0.61060
N2737       N  0.85537371  0.01019565  0.30602459    -0.06040
N2738       N  0.86118924  0.48524637  0.30614712    -0.62130
Mn2739     Mn  0.81461242  0.03267678  0.29473756     1.18440
C2740       C  0.89114883  0.48270460  0.31353316     0.96160
C2741       C  0.89686478  0.04781639  0.27002283     0.96830
N2742       N  0.75238681  0.06790093  0.33415100    -0.08330
N2743       N  0.72654865  0.06088284  0.34210121    -0.64640
N2744       N  0.77884596  0.12205334  0.32039184    -0.07130
N2745       N  0.77123681  0.14654896  0.32179239    -0.65310
N2746       N  0.75396589  0.11050515  0.31347949    -0.07840
N2747       N  0.72929627  0.12688283  0.30987147    -0.64900
N2748       N  0.77794951  0.07893303  0.34099264    -0.06730
N2749       N  0.76999877  0.07947700  0.35381061    -0.65590
Mn2750     Mn  0.75094737  0.06871384  0.31240616     1.10660
C2751       C  0.73807143  0.06794170  0.35431432     0.97380
C2752       C  0.74045239  0.14934158  0.31501801     0.97460
N2753       N  0.88620353  0.10651225  0.31227881    -0.07850
N2754       N  0.91116702  0.12245800  0.30820857    -0.63220
N2755       N  0.86233459  0.07840962  0.34115795    -0.07160
N2756       N  0.87170709  0.08106322  0.35384309    -0.59950
N2757       N  0.88703654  0.06634899  0.33449513    -0.08470
N2758       N  0.91378306  0.06084830  0.34257595    -0.62790
N2759       N  0.86246350  0.11901383  0.31929341    -0.07460
N2760       N  0.87074997  0.14339926  0.32007185    -0.59970
Mn2761     Mn  0.88577533  0.06386659  0.31224072     1.20190
Mn2762     Mn  0.82044885  0.09984113  0.33070206     1.10090
Cl2763     Cl  0.81829294  0.06627494  0.31265124    -0.87940
C2764       C  0.90091803  0.14542570  0.31306753     0.94390
C2765       C  0.90369225  0.06984574  0.35466720     0.94190
N2766       N  0.52577826  0.37249321  0.31022672    -0.08100
N2767       N  0.00043660  0.38748528  0.30564628    -0.60220
N2768       N  0.60681574  0.37211357  0.32279213    -0.07780
N2769       N  0.62987855  0.38899321  0.32727472    -0.62340
N2770       N  0.60726468  0.37132143  0.30960459    -0.07370
N2771       N  0.63089747  0.38757102  0.30487647    -0.60190
N2772       N  0.52636473  0.37266693  0.32334267    -0.07050
N2773       N  0.00195148  0.38812424  0.32802615    -0.62700
C2774       C  0.98569239  0.39704652  0.31686279     0.94080
C2775       C  0.64500098  0.39825871  0.31601733     0.93860
N2776       N  0.60695161  0.30437639  0.34579998    -0.08280
N2777       N  0.63141228  0.29662123  0.35442489    -0.60790
N2778       N  0.52570528  0.32885269  0.34448863    -0.06400
N2779       N  0.99807576  0.33756677  0.35090965    -0.62050
N2780       N  0.52594424  0.30373238  0.34468013    -0.08310
N2781       N  0.99870203  0.29479929  0.35141098    -0.61060
N2782       N  0.60651462  0.32949789  0.34523935    -0.06040
N2783       N  0.63054063  0.33927241  0.35326185    -0.62130
Mn2784     Mn  0.56648039  0.35118573  0.33430041     1.18440
C2785       C  0.64607870  0.31873603  0.35889960     0.96160
C2786       C  0.98145258  0.31615208  0.35509855     0.96830
N2787       N  0.60292953  0.32840825  0.28559279    -0.08330
N2788       N  0.60996682  0.33234734  0.27267240    -0.64640
N2789       N  0.53125073  0.30773483  0.28526712    -0.07130
N2790       N  0.53325267  0.30874026  0.27196752    -0.65310
N2791       N  0.52165105  0.33047716  0.28941326    -0.07840
N2792       N  0.51068092  0.34459410  0.27936306    -0.64900
N2793       N  0.60903361  0.30423038  0.28845415    -0.06730
N2794       N  0.62252180  0.29233008  0.27818583    -0.65590
Mn2795     Mn  0.56492552  0.35085808  0.29865694     1.10660
C2796       C  0.62281998  0.30961231  0.26832069     0.97380
C2797       C  0.02076458  0.33216259  0.26839089     0.97460
N2798       N  0.52638459  0.26165403  0.32218763    -0.07850
N2799       N  0.00313582  0.24441640  0.32622260    -0.63220
N2800       N  0.60667545  0.26152980  0.30999852    -0.07160
N2801       N  0.63011657  0.24548383  0.30520107    -0.59950
N2802       N  0.60743803  0.26128217  0.32316271    -0.08470
N2803       N  0.63157325  0.24505611  0.32758315    -0.62790
N2804       N  0.52654200  0.26298248  0.30899768    -0.07460
N2805       N  0.00416144  0.24634857  0.30384461    -0.59970
Mn2806     Mn  0.56686435  0.28208578  0.33438294     1.20190
Mn2807     Mn  0.56793364  0.28389168  0.29829778     1.10090
Cl2808     Cl  0.56687770  0.31697874  0.31647101    -0.87940
C2809       C  0.98938982  0.23516148  0.31466568     0.94390
C2810       C  0.64567719  0.23546346  0.31622593     0.94190
N2811       N  0.52408896  0.43407022  0.21472701    -0.08100
N2812       N  0.55097620  0.42297006  0.22109733    -0.60220
N2813       N  0.99187357  0.38838318  0.19835222    -0.07780
N2814       N  0.00038768  0.36402443  0.19980830    -0.62340
N2815       N  0.51688240  0.40047900  0.19168092    -0.07370
N2816       N  0.54264309  0.38485698  0.18865965    -0.60190
N2817       N  0.99479558  0.42779534  0.22097387    -0.07050
N2818       N  0.00164446  0.41535398  0.23210066    -0.62700
C2819       C  0.53642174  0.41178514  0.23209874     0.94080
C2820       C  0.53204459  0.36218227  0.19363100     0.93860
N2821       N  0.88388380  0.40566086  0.19334610    -0.08280
N2822       N  0.85821697  0.39065833  0.18898202    -0.60790
N2823       N  0.91596779  0.43581801  0.22108789    -0.06400
N2824       N  0.92437835  0.44732804  0.23247086    -0.62050
N2825       N  0.89185036  0.44914562  0.21465138    -0.08310
N2826       N  0.88368501  0.46972965  0.22153746    -0.61060
N2827       N  0.90838936  0.39217197  0.19931546    -0.06040
N2828       N  0.90030384  0.36764009  0.19905422    -0.62130
Mn2829     Mn  0.95208128  0.41062571  0.20993314     1.18440
C2830       C  0.86903909  0.36693154  0.19251447     0.96160
C2831       C  0.90392368  0.46842253  0.23266168     0.96830
N2832       N  0.52207552  0.44613552  0.17054843    -0.08330
N2833       N  0.54773186  0.44014396  0.16222700    -0.64640
N2834       N  0.49963065  0.99806531  0.18710931    -0.07130
N2835       N  0.50779857  0.02259916  0.18747841    -0.65310
N2836       N  0.52378943  0.48442521  0.19346753    -0.07840
N2837       N  0.54917438  0.99959740  0.19797869    -0.64900
N2838       N  0.99759921  0.45925767  0.16421164    -0.06730
N2839       N  0.50597980  0.46221065  0.15146825    -0.65590
Mn2840     Mn  0.52227523  0.44173271  0.19259965     1.10660
C2841       C  0.53716613  0.45002059  0.15032068     0.97380
C2842       C  0.53859649  0.02339765  0.19433346     0.97460
N2843       N  0.89033107  0.98866778  0.19209719    -0.07850
N2844       N  0.86415197  0.00398198  0.19504368    -0.63220
N2845       N  0.91338646  0.46009922  0.16439972    -0.07160
N2846       N  0.90472422  0.46212407  0.15163033    -0.59950
N2847       N  0.88817485  0.44816064  0.17101637    -0.08470
N2848       N  0.86186623  0.44216964  0.16297058    -0.62790
N2849       N  0.91554901  0.00112969  0.18588174    -0.07460
N2850       N  0.90687139  0.02542747  0.18447611    -0.59970
Mn2851     Mn  0.88761692  0.44743915  0.19282800     1.20190
Mn2852     Mn  0.95673158  0.48005641  0.17517027     1.10090
Cl2853     Cl  0.95485266  0.44491425  0.19252295    -0.89860
C2854       C  0.87486082  0.02683789  0.19036577     0.94390
C2855       C  0.87272102  0.45067369  0.15090903     0.94190
N2856       N  0.63864743  0.20382237  0.21639510    -0.08100
N2857       N  0.61551573  0.21894081  0.22248337    -0.60220
N2858       N  0.66709343  0.25053045  0.20099472    -0.07780
N2859       N  0.65861195  0.27487861  0.20260702    -0.62340
N2860       N  0.64204678  0.23886289  0.19417444    -0.07370
N2861       N  0.61623194  0.25451393  0.19118343    -0.60190
N2862       N  0.66929946  0.20658233  0.22245468    -0.07050
N2863       N  0.66566758  0.21907652  0.23368837    -0.62700
C2864       C  0.63308951  0.22856203  0.23325169     0.94080
C2865       C  0.62685769  0.27693494  0.19631868     0.93860
N2866       N  0.77425746  0.23496414  0.19340018    -0.08280
N2867       N  0.79835373  0.25083776  0.18866291    -0.60790
N2868       N  0.74821828  0.20185226  0.22089664    -0.06400
N2869       N  0.74401300  0.19078590  0.23271875    -0.62050
N2870       N  0.77117819  0.18906904  0.21378456    -0.08310
N2871       N  0.78282456  0.16910839  0.22066142    -0.61060
N2872       N  0.75046257  0.24747696  0.20017485    -0.06040
N2873       N  0.75757103  0.27218342  0.20015196    -0.62130
Mn2874     Mn  0.70923132  0.22706426  0.21114030     1.18440
C2875       C  0.78743866  0.27403358  0.19286929     0.96160
C2876       C  0.76595399  0.17049772  0.23253662     0.96830
N2877       N  0.63574123  0.19668093  0.17232527    -0.08330
N2878       N  0.61027798  0.20604600  0.16477524    -0.64640
N2879       N  0.65984868  0.14248695  0.18654929    -0.07130
N2880       N  0.65166518  0.11792003  0.18646080    -0.65310
N2881       N  0.63694275  0.15528558  0.19385265    -0.07840
N2882       N  0.61244099  0.13957511  0.19853559    -0.64900
N2883       N  0.65865798  0.18428580  0.16499589    -0.06730
N2884       N  0.64897335  0.18478488  0.15228489    -0.65590
Mn2885     Mn  0.63786274  0.19795121  0.19418798     1.10660
C2886       C  0.61885902  0.19856900  0.15231727     0.97380
C2887       C  0.62220517  0.11627354  0.19400598     0.97460
N2888       N  0.76928395  0.15206435  0.19018153    -0.07850
N2889       N  0.79498486  0.13639309  0.19330173    -0.63220
N2890       N  0.74363807  0.18358647  0.16314103    -0.07160
N2891       N  0.75098184  0.18469217  0.15015235    -0.59950
N2892       N  0.76868374  0.19525482  0.17000375    -0.08470
N2893       N  0.79310302  0.20442086  0.16197424    -0.62790
N2894       N  0.74372568  0.13998849  0.18393099    -0.07460
N2895       N  0.75164227  0.11552544  0.18268056    -0.59970
Mn2896     Mn  0.77179951  0.19316648  0.19187511     1.20190
Mn2897     Mn  0.70120576  0.16201322  0.17427606     1.10090
Cl2898     Cl  0.70492060  0.19507382  0.19275576    -0.87940
C2899       C  0.78366804  0.11371351  0.18868473     0.94390
C2900       C  0.78193117  0.19794606  0.14960271     0.94190
N2901       N  0.88720596  0.22002476  0.08299436    -0.08100
N2902       N  0.86139565  0.21044806  0.09032988    -0.60220
N2903       N  0.91407844  0.27451769  0.06968016    -0.07780
N2904       N  0.90546236  0.29881353  0.07071427    -0.62340
N2905       N  0.89112965  0.26238316  0.06199616    -0.07370
N2906       N  0.86643138  0.27824902  0.05779536    -0.60190
N2907       N  0.91055746  0.23173471  0.09062201    -0.07050
N2908       N  0.90075137  0.23041628  0.10332042    -0.62700
C2909       C  0.87008993  0.21693822  0.10300925     0.94080
C2910       C  0.87586237  0.30093197  0.06320535     0.93860
N2911       N  0.52302365  0.26343946  0.06537529    -0.08280
N2912       N  0.54819531  0.27891077  0.06134701    -0.60790
N2913       N  0.99564318  0.23147282  0.09221349    -0.06400
N2914       N  0.00196609  0.22932804  0.10520986    -0.62050
N2915       N  0.52046107  0.21981761  0.08540181    -0.08310
N2916       N  0.54378729  0.20947214  0.09350467    -0.61060
N2917       N  0.99859069  0.27587440  0.07192631    -0.06040
N2918       N  0.00719369  0.30043748  0.07257700    -0.62130
Mn2919     Mn  0.95464612  0.25402763  0.08152563     1.18440
C2920       C  0.53819009  0.30193400  0.06579188     0.96160
C2921       C  0.53200394  0.21536820  0.10580379     0.96830
N2922       N  0.89409279  0.21799332  0.03856424    -0.08330
N2923       N  0.86927546  0.21307804  0.02946184    -0.64640
N2924       N  0.91787504  0.16686956  0.05425113    -0.07130
N2925       N  0.91013074  0.14212555  0.05402820    -0.65310
N2926       N  0.89277319  0.17921084  0.06051221    -0.07840
N2927       N  0.86797593  0.16360028  0.06469938    -0.64900
N2928       N  0.92467018  0.21199812  0.03345425    -0.06730
N2929       N  0.92195320  0.20656359  0.02076663    -0.65590
Mn2930     Mn  0.89040262  0.22022320  0.06092448     1.10660
C2931       C  0.88751457  0.20634445  0.01824510     0.97380
C2932       C  0.87894993  0.14049902  0.06070797     0.97460
N2933       N  0.52597445  0.18033055  0.06215756    -0.07850
N2934       N  0.55057083  0.16444678  0.06644577    -0.63220
N2935       N  0.00183808  0.21315082  0.03456869    -0.07160
N2936       N  0.99751359  0.22370129  0.02262357    -0.59950
N2937       N  0.52430793  0.22658846  0.04169177    -0.08470
N2938       N  0.53528853  0.24667395  0.03469583    -0.62790
N2939       N  0.00201710  0.16797639  0.05523593    -0.07460
N2940       N  0.00979012  0.14347965  0.05450859    -0.59970
Mn2941     Mn  0.52440489  0.22232915  0.06367954     1.20190
Mn2942     Mn  0.96173088  0.18921819  0.04439414     1.10090
Cl2943     Cl  0.95769266  0.22137842  0.06279778    -0.87940
C2944       C  0.54004781  0.14147183  0.06165068     0.94390
C2945       C  0.51860032  0.24452002  0.02271273     0.94190
N2946       N  0.63874360  0.46937621  0.08320234    -0.08100
N2947       N  0.61366543  0.45944783  0.09075405    -0.60220
N2948       N  0.66419618  0.02400094  0.06987708    -0.07780
N2949       N  0.65546896  0.04827327  0.07099488    -0.62340
N2950       N  0.64107951  0.01186769  0.06225128    -0.07370
N2951       N  0.61618303  0.02771877  0.05818628    -0.60190
N2952       N  0.66272600  0.48076489  0.09068294    -0.07050
N2953       N  0.65434400  0.47866287  0.10349895    -0.62700
C2954       C  0.62373839  0.46519744  0.10338877     0.94080
C2955       C  0.62563492  0.05039688  0.06361138     0.93860
N2956       N  0.77307250  0.01357845  0.06477271    -0.08280
N2957       N  0.79814836  0.02919497  0.06082707    -0.60790
N2958       N  0.74732641  0.48089831  0.09165510    -0.06400
N2959       N  0.75414956  0.47818986  0.10459028    -0.62050
N2960       N  0.77204911  0.46975827  0.08457116    -0.08310
N2961       N  0.79598984  0.45941822  0.09239233    -0.61060
N2962       N  0.74883372  0.02576000  0.07155520    -0.06040
N2963       N  0.75740725  0.05029602  0.07241011    -0.62130
Mn2964     Mn  0.70569770  0.50354325  0.08139080     1.18440
C2965       C  0.78823910  0.05204301  0.06554279     0.96160
C2966       C  0.78454435  0.46461158  0.10480896     0.96830
N2967       N  0.64327522  0.46724534  0.03869382    -0.08330
N2968       N  0.61845274  0.46049440  0.02991756    -0.64640
N2969       N  0.66817353  0.41660131  0.05402674    -0.07130
N2970       N  0.66046789  0.39183913  0.05367972    -0.65310
N2971       N  0.64341474  0.42870200  0.06059940    -0.07840
N2972       N  0.61893753  0.41293432  0.06489161    -0.64900
N2973       N  0.67402970  0.46246779  0.03337968    -0.06730
N2974       N  0.67105490  0.45649530  0.02076713    -0.65590
Mn2975     Mn  0.64064728  0.46964685  0.06108892     1.10660
C2976       C  0.63660426  0.45423129  0.01860817     0.97380
C2977       C  0.62971556  0.38996179  0.06063712     0.97460
N2978       N  0.77647280  0.43065067  0.06133447    -0.07850
N2979       N  0.80113037  0.41484739  0.06561943    -0.63220
N2980       N  0.75111241  0.46347684  0.03400215    -0.07160
N2981       N  0.74657478  0.47397154  0.02205798    -0.59950
N2982       N  0.77384253  0.47685873  0.04101368    -0.08470
N2983       N  0.78486716  0.49683790  0.03396896    -0.62790
N2984       N  0.75228156  0.41820907  0.05458482    -0.07460
N2985       N  0.75994747  0.39368821  0.05396157    -0.59970
Mn2986     Mn  0.77474872  0.47252002  0.06290144     1.20190
Mn2987     Mn  0.71152024  0.43942891  0.04402528     1.10090
Cl2988     Cl  0.70787417  0.47129404  0.06263358    -0.87940
C2989       C  0.79040530  0.39181441  0.06099329     0.94390
C2990       C  0.76787959  0.49467966  0.02205747     0.94190
N2991       N  0.49754678  0.34460787  0.96462102    -0.08100
N2992       N  0.48646443  0.32479134  0.97179134    -0.60220
N2993       N  0.51955293  0.40281070  0.95068067    -0.07780
N2994       N  0.51188869  0.42732751  0.95137551    -0.62340
N2995       N  0.49522576  0.39040332  0.94397523    -0.07370
N2996       N  0.97045087  0.40624370  0.93981922    -0.60190
N2997       N  0.52055890  0.35796133  0.97153095    -0.07050
N2998       N  0.52519242  0.34761397  0.98351236    -0.62700
C2999       C  0.50367755  0.32701721  0.98366240     0.94080
C3000       C  0.48127803  0.42925816  0.94445189     0.93860
N3001       N  0.62827565  0.39159796  0.94446718    -0.08280
N3002       N  0.65297975  0.40728912  0.94027771    -0.60790
N3003       N  0.59781292  0.35884544  0.97199835    -0.06400
N3004       N  0.60091476  0.36466095  0.98462521    -0.62050
N3005       N  0.62841518  0.35358649  0.96668778    -0.08310
N3006       N  0.65342887  0.35958445  0.97553546    -0.61060
N3007       N  0.60355156  0.40381961  0.95101985    -0.06040
N3008       N  0.61140739  0.42851818  0.95140426    -0.62130
Mn3009     Mn  0.56028878  0.38162814  0.96130253     1.18440
C3010       C  0.64225899  0.43028629  0.94454468     0.96160
C3011       C  0.63542776  0.36606980  0.98684929     0.96830
N3012       N  0.49949392  0.35043264  0.92087072    -0.08330
N3013       N  0.97537937  0.35975927  0.91274018    -0.64640
N3014       N  0.52223437  0.29492536  0.93459016    -0.07130
N3015       N  0.51358983  0.27042289  0.93384744    -0.65310
N3016       N  0.49779255  0.30736300  0.94112124    -0.07840
N3017       N  0.47244424  0.29192487  0.94502108    -0.64900
N3018       N  0.52446028  0.33886771  0.91409535    -0.06730
N3019       N  0.51775783  0.34029762  0.90112594    -0.65590
Mn3020     Mn  0.49652557  0.34843971  0.94263114     1.10660
C3021       C  0.48719923  0.35355417  0.90048391     0.97380
C3022       C  0.48249333  0.26893894  0.94052310     0.97460
N3023       N  0.63012306  0.30838380  0.94365615    -0.07850
N3024       N  0.65502413  0.29256408  0.94772723    -0.63220
N3025       N  0.60891898  0.33793818  0.91490369    -0.07160
N3026       N  0.61818733  0.33738541  0.90215345    -0.59950
N3027       N  0.63336940  0.34951702  0.92207626    -0.08470
N3028       N  0.65978590  0.35684722  0.91432530    -0.62790
N3029       N  0.60657939  0.29610595  0.93630487    -0.07460
N3030       N  0.61497614  0.27176302  0.93536731    -0.59970
Mn3031     Mn  0.63101185  0.35055452  0.94428958     1.20190
Mn3032     Mn  0.56555520  0.31641306  0.92462754     1.10090
Cl3033     Cl  0.56345290  0.34936042  0.94303672    -0.87940
C3034       C  0.64506947  0.26975878  0.94258950     0.94390
C3035       C  0.64986159  0.34939884  0.90188961     0.94190
N3036       N  0.74709502  0.09468634  0.96415813    -0.08100
N3037       N  0.73582474  0.07494781  0.97132758    -0.60220
N3038       N  0.76916789  0.15267892  0.95018701    -0.07780
N3039       N  0.76141322  0.17716830  0.95086212    -0.62340
N3040       N  0.74495020  0.14020908  0.94345801    -0.07370
N3041       N  0.72012744  0.15598736  0.93927361    -0.60190
N3042       N  0.77002619  0.10805526  0.97109376    -0.07050
N3043       N  0.77444365  0.09778874  0.98309986    -0.62700
C3044       C  0.75285111  0.07723672  0.98322377     0.94080
C3045       C  0.73085597  0.17902573  0.94390879     0.93860
N3046       N  0.87779936  0.14193102  0.94415348    -0.08280
N3047       N  0.90247172  0.15768336  0.94001572    -0.60790
N3048       N  0.84735839  0.10907809  0.97175303    -0.06400
N3049       N  0.85028030  0.11562212  0.98428799    -0.62050
N3050       N  0.87819753  0.10444586  0.96646390    -0.08310
N3051       N  0.90293002  0.11183479  0.97513670    -0.61060
N3052       N  0.85297743  0.15406054  0.95069239    -0.06040
N3053       N  0.86069174  0.17878034  0.95109976    -0.62130
Mn3054     Mn  0.80981368  0.13170764  0.96092906     1.18440
C3055       C  0.89159967  0.18063630  0.94428366     0.96160
C3056       C  0.88469494  0.11833099  0.98638529     0.96830
N3057       N  0.74977350  0.10009728  0.92048993    -0.08330
N3058       N  0.72581858  0.10951437  0.91233259    -0.64640
N3059       N  0.77264238  0.04470034  0.93436148    -0.07130
N3060       N  0.76421611  0.02013745  0.93373265    -0.65310
N3061       N  0.74806323  0.05713521  0.94082206    -0.07840
N3062       N  0.72287393  0.04163445  0.94480277    -0.64900
N3063       N  0.77479225  0.08851113  0.91375824    -0.06730
N3064       N  0.76825748  0.08999347  0.90077582    -0.65590
Mn3065     Mn  0.74648294  0.09825370  0.94220525     1.10660
C3066       C  0.73774667  0.10331728  0.90009778     0.97380
C3067       C  0.73313106  0.01861320  0.94042064     0.97460
N3068       N  0.88042368  0.05874344  0.94357684    -0.07850
N3069       N  0.90537002  0.04304294  0.94775449    -0.63220
N3070       N  0.85917400  0.08798606  0.91470702    -0.07160
N3071       N  0.86842429  0.08763660  0.90195138    -0.59950
N3072       N  0.88340742  0.09975789  0.92189559    -0.08470
N3073       N  0.90965018  0.10743978  0.91415722    -0.62790
N3074       N  0.85705085  0.04629556  0.93622098    -0.07460
N3075       N  0.86560399  0.02196677  0.93539360    -0.59970
Mn3076     Mn  0.88090693  0.10096565  0.94408667     1.20190
Mn3077     Mn  0.81593881  0.06628995  0.92440755     1.10090
Cl3078     Cl  0.81338995  0.09938544  0.94273913    -0.87940
C3079       C  0.89561480  0.02013384  0.94268003     0.94390
C3080       C  0.89985881  0.09998647  0.90171101     0.94190
N3081       N  0.64116333  0.08800762  0.42038639    -0.08100
N3082       N  0.66418723  0.07704167  0.41259124    -0.60220
N3083       N  0.61970883  0.14402112  0.43336572    -0.07780
N3084       N  0.62853218  0.16853222  0.43252340    -0.62340
N3085       N  0.64409552  0.13152926  0.44007374    -0.07370
N3086       N  0.66955840  0.14691144  0.44395642    -0.60190
N3087       N  0.61640613  0.09945662  0.41332338    -0.07050
N3088       N  0.62230196  0.09639773  0.40039154    -0.62700
C3089       C  0.65216549  0.08223826  0.40020593     0.94080
C3090       C  0.65971496  0.16994742  0.43929290     0.93860
N3091       N  0.51225179  0.13076490  0.44281217    -0.08280
N3092       N  0.98764748  0.14668589  0.44683761    -0.60790
N3093       N  0.53202921  0.10013938  0.41429762    -0.06400
N3094       N  0.52317959  0.09839487  0.40147729    -0.62050
N3095       N  0.50814699  0.08875440  0.42179460    -0.08310
N3096       N  0.98267302  0.07919174  0.41423837    -0.61060
N3097       N  0.53528491  0.14285733  0.43516803    -0.06040
N3098       N  0.52682785  0.16718177  0.43398846    -0.62130
Mn3099     Mn  0.57578269  0.12229826  0.42361719     1.18440
C3100       C  0.99723268  0.16935056  0.44136665     0.96160
C3101       C  0.99236365  0.08515460  0.40157627     0.96830
N3102       N  0.64529422  0.09388719  0.46375971    -0.08330
N3103       N  0.65702468  0.11347554  0.47085683    -0.64640
N3104       N  0.62202395  0.03598705  0.45017463    -0.07130
N3105       N  0.62963432  0.01146909  0.45096219    -0.65310
N3106       N  0.64619594  0.04840921  0.44342615    -0.07840
N3107       N  0.67077502  0.03256837  0.43929952    -0.64900
N3108       N  0.62271126  0.08041473  0.47078492    -0.06730
N3109       N  0.61900377  0.09043230  0.48279526    -0.65590
Mn3110     Mn  0.64511671  0.09034534  0.44190873     1.10660
C3111       C  0.64063047  0.11094187  0.48280894     0.97380
C3112       C  0.66000221  0.50955448  0.44401899     0.97460
N3113       N  0.51306346  0.04761949  0.44451396    -0.07850
N3114       N  0.98812307  0.03210390  0.44034032    -0.63220
N3115       N  0.54546799  0.08015612  0.47163971    -0.07160
N3116       N  0.54296503  0.07445739  0.48432447    -0.59950
N3117       N  0.51473750  0.08593591  0.46643724    -0.08470
N3118       N  0.99010218  0.08043790  0.47546835    -0.62790
N3119       N  0.53810434  0.03517545  0.45090780    -0.07460
N3120       N  0.53026052  0.01045546  0.45119891    -0.59970
Mn3121     Mn  0.51106071  0.08861782  0.44397754     1.20190
Mn3122     Mn  0.58212384  0.05717344  0.46086563     1.10090
Cl3123     Cl  0.57839960  0.08959564  0.44245776    -0.87940
C3124       C  0.99901470  0.50895156  0.44446049     0.94390
C3125       C  0.50856815  0.07370000  0.48674933     0.94190
N3126       N  0.88748407  0.33838349  0.41905506    -0.08100
N3127       N  0.90619389  0.32549058  0.41036160    -0.60220
N3128       N  0.86875872  0.39450690  0.43348776    -0.07780
N3129       N  0.87715359  0.41910392  0.43301323    -0.62340
N3130       N  0.89423045  0.38161421  0.43931899    -0.07370
N3131       N  0.92006083  0.39683966  0.44301743    -0.60190
N3132       N  0.86203086  0.35099406  0.41296664    -0.07050
N3133       N  0.86319082  0.34716270  0.39992796    -0.62700
C3134       C  0.89064282  0.33101456  0.39852241     0.94080
C3135       C  0.90925571  0.42015893  0.43911874     0.93860
N3136       N  0.76216500  0.38077124  0.44450972    -0.08280
N3137       N  0.73743543  0.39645550  0.44873016    -0.60790
N3138       N  0.77945362  0.35158254  0.41572011    -0.06400
N3139       N  0.77036705  0.34974219  0.40298018    -0.62050
N3140       N  0.75718859  0.33872591  0.42327147    -0.08310
N3141       N  0.73290814  0.32748663  0.41578548    -0.61060
N3142       N  0.78476198  0.39324749  0.43684487    -0.06040
N3143       N  0.77590999  0.41748955  0.43582375    -0.62130
Mn3144     Mn  0.82370367  0.37343221  0.42441779     1.18440
C3145       C  0.74655500  0.41931661  0.44333570     0.96160
C3146       C  0.74155803  0.33444244  0.40316106     0.96830
N3147       N  0.89768014  0.34363303  0.46270110    -0.08330
N3148       N  0.90899491  0.36358698  0.46965991    -0.64640
N3149       N  0.87325920  0.28584117  0.44907493    -0.07130
N3150       N  0.88117641  0.26138216  0.44973683    -0.65310
N3151       N  0.89658642  0.29839307  0.44198071    -0.07840
N3152       N  0.92093921  0.28268640  0.43751289    -0.64900
N3153       N  0.87600533  0.32982847  0.46998877    -0.06730
N3154       N  0.87272069  0.33991772  0.48200308    -0.65590
Mn3155     Mn  0.89517282  0.34032098  0.44071977     1.10660
C3156       C  0.89345247  0.36088570  0.48178561     0.97380
C3157       C  0.91084024  0.25961441  0.44237278     0.97460
N3158       N  0.76375206  0.29731939  0.44544749    -0.07850
N3159       N  0.73859216  0.28192001  0.44133329    -0.63220
N3160       N  0.79871770  0.32860017  0.47227255    -0.07160
N3161       N  0.79723512  0.32262979  0.48495102    -0.59950
N3162       N  0.76778820  0.33537342  0.46759709    -0.08470
N3163       N  0.74387679  0.33066549  0.47699806    -0.62790
N3164       N  0.78959978  0.28462222  0.45119061    -0.07460
N3165       N  0.78204515  0.25983563  0.45113174    -0.59970
Mn3166     Mn  0.76162142  0.33839127  0.44532906     1.20190
Mn3167     Mn  0.83457822  0.30650399  0.46059682     1.10090
Cl3168     Cl  0.82847948  0.33976364  0.44258901    -0.87940
C3169       C  0.75012858  0.25856800  0.44483061     0.94390
C3170       C  0.76310626  0.32307915  0.48792570     0.94190
N3171       N  0.00143951  0.46972428  0.53851783    -0.08100
N3172       N  0.52601553  0.47831300  0.53012073    -0.60220
N3173       N  0.97530452  0.01842388  0.55423001    -0.07780
N3174       N  0.98313072  0.04312193  0.55369171    -0.62340
N3175       N  0.00006552  0.00627590  0.56094514    -0.07370
N3176       N  0.52477618  0.02198651  0.56509144    -0.60190
N3177       N  0.97053277  0.47393597  0.53304618    -0.07050
N3178       N  0.97346862  0.48120750  0.52059270    -0.62700
C3179       C  0.50776580  0.48493616  0.51878786     0.94080
C3180       C  0.01400684  0.04493943  0.56063640     0.93860
N3181       N  0.86714938  0.00375703  0.56072834    -0.08280
N3182       N  0.84222799  0.01934560  0.56487059    -0.60790
N3183       N  0.89337255  0.47262057  0.53316203    -0.06400
N3184       N  0.89822974  0.46284728  0.52113774    -0.62050
N3185       N  0.87048872  0.45884645  0.53986847    -0.08310
N3186       N  0.85967178  0.43929761  0.53252509    -0.61060
N3187       N  0.89144978  0.01654701  0.55423346    -0.06040
N3188       N  0.88366906  0.04106176  0.55367912    -0.62130
Mn3189     Mn  0.93254546  0.99607090  0.54371734     1.18440
C3190       C  0.85298621  0.04260815  0.56045275     0.96160
C3191       C  0.87694400  0.44215360  0.52076143     0.96830
N3192       N  0.50541665  0.46363352  0.58312832    -0.08330
N3193       N  0.53111823  0.47170440  0.59105412    -0.64640
N3194       N  0.98024254  0.41036677  0.56859489    -0.07130
N3195       N  0.98888471  0.38603724  0.56940218    -0.65310
N3196       N  0.50361064  0.42308473  0.56137836    -0.07840
N3197       N  0.52868069  0.40754177  0.55729780    -0.64900
N3198       N  0.98122026  0.45154133  0.59016796    -0.06730
N3199       N  0.99000913  0.45130632  0.60300906    -0.65590
Mn3200     Mn  0.50362308  0.46539515  0.56092402     1.10660
C3201       C  0.52109438  0.46410214  0.60344407     0.97380
C3202       C  0.51896808  0.38446065  0.56227247     0.97460
N3203       N  0.87157707  0.42051483  0.56305855    -0.07850
N3204       N  0.84684240  0.40485162  0.55883463    -0.63220
N3205       N  0.89664101  0.45120751  0.59054547    -0.07160
N3206       N  0.88965511  0.45217816  0.60348078    -0.59950
N3207       N  0.87156391  0.46270573  0.58363621    -0.08470
N3208       N  0.84708593  0.47150654  0.59163443    -0.62790
N3209       N  0.89602756  0.40817578  0.56980109    -0.07460
N3210       N  0.88794043  0.38356499  0.57041971    -0.59970
Mn3211     Mn  0.86922033  0.46170466  0.56182059     1.20190
Mn3212     Mn  0.93856992  0.42972508  0.58016556     1.10090
Cl3213     Cl  0.93624765  0.46327997  0.56197498    -0.87940
C3214       C  0.85727778  0.38187215  0.56338553     0.94390
C3215       C  0.85877080  0.46504553  0.60395014     0.94190
N3216       N  0.75142795  0.21877012  0.53887455    -0.08100
N3217       N  0.77644151  0.22662022  0.53049136    -0.60220
N3218       N  0.72606420  0.26809635  0.55430979    -0.07780
N3219       N  0.73409265  0.29272818  0.55363402    -0.62340
N3220       N  0.75067164  0.25592974  0.56109710    -0.07370
N3221       N  0.77547654  0.27162632  0.56520051    -0.60190
N3222       N  0.72073440  0.22353015  0.53334022    -0.07050
N3223       N  0.72412968  0.23061473  0.52087595    -0.62700
C3224       C  0.75861976  0.23356728  0.51913242     0.94080
C3225       C  0.76487772  0.29454251  0.56061137     0.93860
N3226       N  0.61804061  0.25447342  0.56109888    -0.08280
N3227       N  0.59328155  0.27024797  0.56516575    -0.60790
N3228       N  0.64323215  0.22293325  0.53360494    -0.06400
N3229       N  0.64757056  0.21303878  0.52159131    -0.62050
N3230       N  0.62012134  0.20953294  0.54040158    -0.08310
N3231       N  0.60859173  0.19011437  0.53313802    -0.61060
N3232       N  0.64235223  0.26700040  0.55447277    -0.06040
N3233       N  0.63472916  0.29153394  0.55375615    -0.62130
Mn3234     Mn  0.68299653  0.24604028  0.54396089     1.18440
C3235       C  0.60414220  0.29335208  0.56057375     0.96160
C3236       C  0.62569026  0.19267353  0.52133228     0.96830
N3237       N  0.75551992  0.21345818  0.58338845    -0.08330
N3238       N  0.78122533  0.22164239  0.59127147    -0.64640
N3239       N  0.72973404  0.16005295  0.56899209    -0.07130
N3240       N  0.73814682  0.13566507  0.56979926    -0.65310
N3241       N  0.75323054  0.17264239  0.56178043    -0.07840
N3242       N  0.77812113  0.15697363  0.55768587    -0.64900
N3243       N  0.73131115  0.20147922  0.59046817    -0.06730
N3244       N  0.74007525  0.20145416  0.60330999    -0.65590
Mn3245     Mn  0.75368235  0.21493350  0.56122920     1.10660
C3246       C  0.77117532  0.21424171  0.60368550     0.97380
C3247       C  0.76821242  0.13393924  0.56265681     0.97460
N3248       N  0.62086053  0.17124741  0.56361749    -0.07850
N3249       N  0.59563621  0.15586040  0.55953075    -0.63220
N3250       N  0.64691832  0.20175359  0.59093052    -0.07160
N3251       N  0.63994347  0.20269225  0.60386349    -0.59950
N3252       N  0.62207760  0.21356699  0.58405050    -0.08470
N3253       N  0.59777324  0.22255544  0.59205513    -0.62790
N3254       N  0.64529984  0.15863906  0.57023112    -0.07460
N3255       N  0.63675663  0.13410348  0.57085329    -0.59970
Mn3256     Mn  0.61934682  0.21246409  0.56230012     1.20190
Mn3257     Mn  0.68835147  0.17984156  0.58053608     1.10090
Cl3258     Cl  0.68635297  0.21334779  0.56230069    -0.87940
C3259       C  0.60575688  0.13275444  0.56400531     0.94390
C3260       C  0.60932391  0.21587746  0.60434917     0.94190
N3261       N  0.87475218  0.21938107  0.67154470    -0.08100
N3262       N  0.84879622  0.22639189  0.66345684    -0.60220
N3263       N  0.90033849  0.16699696  0.68684079    -0.07780
N3264       N  0.89256638  0.14248006  0.68644723    -0.62340
N3265       N  0.87654804  0.17954038  0.69382962    -0.07370
N3266       N  0.85196209  0.16359878  0.69813486    -0.60190
N3267       N  0.89928714  0.20740564  0.66475412    -0.07050
N3268       N  0.89049739  0.20619960  0.65194064    -0.62700
C3269       C  0.85907009  0.21828483  0.65123906     0.94080
C3270       C  0.86253110  0.14054097  0.69355449     0.93860
N3271       N  0.50859303  0.17702374  0.69200745    -0.08280
N3272       N  0.53439698  0.16170142  0.69555118    -0.60790
N3273       N  0.98385549  0.20754466  0.66449001    -0.06400
N3274       N  0.99154838  0.20739305  0.65162002    -0.62050
N3275       N  0.50907033  0.21910059  0.67130565    -0.08310
N3276       N  0.53441646  0.22681032  0.66328625    -0.61060
N3277       N  0.98414217  0.16464232  0.68532007    -0.06040
N3278       N  0.99317016  0.14035777  0.68408337    -0.62130
Mn3279     Mn  0.94175338  0.18619390  0.67502538     1.18440
C3280       C  0.52451646  0.13886174  0.69066305     0.96160
C3281       C  0.52298571  0.21966219  0.65105588     0.96830
N3282       N  0.87614253  0.22717832  0.71616566    -0.08330
N3283       N  0.84973143  0.23192658  0.72457696    -0.64640
N3284       N  0.90524727  0.27571278  0.69928774    -0.07130
N3285       N  0.89824776  0.30047438  0.69921413    -0.65310
N3286       N  0.88005350  0.26326089  0.69292671    -0.07840
N3287       N  0.85592883  0.27898700  0.68833426    -0.64900
N3288       N  0.90556950  0.23521235  0.72169468    -0.06730
N3289       N  0.90059462  0.24307925  0.73393567    -0.65590
Mn3290     Mn  0.87580602  0.22198114  0.69371335     1.10660
C3291       C  0.86597794  0.24111722  0.73583900     0.97380
C3292       C  0.86752075  0.30214471  0.69220103     0.97460
N3293       N  0.51318213  0.26002123  0.69404020    -0.07850
N3294       N  0.53885173  0.27543144  0.69013101    -0.63220
N3295       N  0.98320353  0.22878230  0.72157717    -0.07160
N3296       N  0.97403864  0.21687527  0.73276444    -0.59950
N3297       N  0.50633230  0.21502046  0.71502616    -0.08470
N3298       N  0.51269587  0.19355514  0.72163646    -0.62790
N3299       N  0.98874773  0.27294361  0.70020664    -0.07460
N3300       N  0.99704716  0.29735767  0.70073171    -0.59970
Mn3301     Mn  0.51029346  0.21821924  0.69316316     1.20190
Mn3302     Mn  0.94628469  0.25377188  0.71064169     1.10090
Cl3303     Cl  0.94315864  0.22003672  0.69290594    -0.87940
C3304       C  0.52824672  0.29872473  0.69433724     0.94390
C3305       C  0.49252727  0.19493101  0.73271648     0.94190
N3306       N  0.63672196  0.09895729  0.83308530    -0.08100
N3307       N  0.66201908  0.10809615  0.84075564    -0.60220
N3308       N  0.61075120  0.04362153  0.82045729    -0.07780
N3309       N  0.62004718  0.01939254  0.82202945    -0.62340
N3310       N  0.63451691  0.05569185  0.81328522    -0.07370
N3311       N  0.65999820  0.04025263  0.80975056    -0.60190
N3312       N  0.61201095  0.08792171  0.84035257    -0.07050
N3313       N  0.62000252  0.08957472  0.85319147    -0.62700
C3314       C  0.65109771  0.10235843  0.85323993     0.94080
C3315       C  0.65077786  0.01764400  0.81514719     0.93860
N3316       N  0.50243985  0.05857270  0.81259243    -0.08280
N3317       N  0.97758543  0.04276060  0.80841436    -0.60790
N3318       N  0.52745119  0.08790729  0.84094361    -0.06400
N3319       N  0.51930239  0.08757572  0.85382636    -0.62050
N3320       N  0.50285323  0.09983379  0.83401971    -0.08310
N3321       N  0.97755408  0.10769269  0.84204740    -0.61060
N3322       N  0.52635517  0.04603691  0.81965643    -0.06040
N3323       N  0.51827282  0.02153792  0.82028776    -0.62130
Mn3324     Mn  0.56903059  0.06585378  0.83069665     1.18440
C3325       C  0.98793746  0.01971857  0.81319718     0.96160
C3326       C  0.98820167  0.10017340  0.85439804     0.96830
N3327       N  0.63105336  0.09246535  0.78945913    -0.08330
N3328       N  0.63772665  0.07100480  0.78301816    -0.64640
N3329       N  0.61527425  0.15139153  0.80328420    -0.07130
N3330       N  0.62370535  0.17583491  0.80266559    -0.65310
N3331       N  0.63973334  0.13845524  0.80960251    -0.07840
N3332       N  0.66541821  0.15381234  0.81354459    -0.64900
N3333       N  0.60753787  0.10594192  0.78278367    -0.06730
N3334       N  0.59832093  0.09381003  0.77167768    -0.65590
Mn3335     Mn  0.63650500  0.09674282  0.81128282     1.10660
C3336       C  0.61734922  0.07206069  0.77188611     0.97380
C3337       C  0.65499043  0.17712248  0.80917715     0.97460
N3338       N  0.50676972  0.14216839  0.81162630    -0.07850
N3339       N  0.98304962  0.15804419  0.81619775    -0.63220
N3340       N  0.52982784  0.11228341  0.78341849    -0.07160
N3341       N  0.52376182  0.11820375  0.77090520    -0.59950
N3342       N  0.50123655  0.10400234  0.78938433    -0.08470
N3343       N  0.97415859  0.10643142  0.78091790    -0.62790
N3344       N  0.53129248  0.15437580  0.80479521    -0.07460
N3345       N  0.52412215  0.17914453  0.80451297    -0.59970
Mn3346     Mn  0.50239528  0.10084366  0.81184853     1.20190
Mn3347     Mn  0.57152769  0.13173837  0.79353962     1.10090
Cl3348     Cl  0.56971847  0.09884840  0.81197336    -0.87940
C3349       C  0.99405300  0.18105314  0.81181811     0.94390
C3350       C  0.48922905  0.11458621  0.76924157     0.94190
N3351       N  0.62473738  0.46912907  0.67137450    -0.08100
N3352       N  0.59868018  0.47597427  0.66329071    -0.60220
N3353       N  0.65069195  0.41676113  0.68667219    -0.07780
N3354       N  0.64310331  0.39221042  0.68629188    -0.62340
N3355       N  0.62680134  0.42922551  0.69363725    -0.07370
N3356       N  0.60233127  0.41321802  0.69795419    -0.60190
N3357       N  0.64934510  0.45723568  0.66459207    -0.07050
N3358       N  0.64052694  0.45593250  0.65178156    -0.62700
C3359       C  0.60898217  0.46786477  0.65107467     0.94080
C3360       C  0.61306819  0.39019199  0.69339652     0.93860
N3361       N  0.75890459  0.42721919  0.69184489    -0.08280
N3362       N  0.78479298  0.41197160  0.69538764    -0.60790
N3363       N  0.73388366  0.45770880  0.66436531    -0.06400
N3364       N  0.74154963  0.45744161  0.65149488    -0.62050
N3365       N  0.75910591  0.46933583  0.67114947    -0.08310
N3366       N  0.78445220  0.47695248  0.66309061    -0.61060
N3367       N  0.73449260  0.41476910  0.68517169    -0.06040
N3368       N  0.74365413  0.39051232  0.68393276    -0.62130
Mn3369     Mn  0.69192013  0.43619847  0.67490427     1.18440
C3370       C  0.77502310  0.38910708  0.69050397     0.96160
C3371       C  0.77298418  0.46969403  0.65087311     0.96830
N3372       N  0.62598458  0.47656273  0.71599865    -0.08330
N3373       N  0.59945145  0.48089651  0.72441272    -0.64640
N3374       N  0.65478665  0.02542141  0.69928626    -0.07130
N3375       N  0.64756973  0.05014522  0.69929704    -0.65310
N3376       N  0.62973180  0.01293218  0.69286144    -0.07840
N3377       N  0.60546603  0.02861001  0.68832445    -0.64900
N3378       N  0.65525139  0.48474467  0.72159148    -0.06730
N3379       N  0.65007122  0.49234066  0.73386777    -0.65590
Mn3380     Mn  0.62581338  0.47160600  0.69353714     1.10660
C3381       C  0.61547323  0.49001729  0.73573376     0.97380
C3382       C  0.61684597  0.05176919  0.69228308     0.97460
N3383       N  0.76285678  0.01023708  0.69404160    -0.07850
N3384       N  0.78843907  0.02576645  0.69018137    -0.63220
N3385       N  0.73302166  0.47865663  0.72152155    -0.07160
N3386       N  0.72388099  0.46663801  0.73267910    -0.59950
N3387       N  0.75624893  0.46500869  0.71494454    -0.08470
N3388       N  0.76267652  0.44350121  0.72151748    -0.62790
N3389       N  0.73837842  0.02302159  0.70027334    -0.07460
N3390       N  0.74658248  0.04745367  0.70088459    -0.59970
Mn3391     Mn  0.76034398  0.46840038  0.69304896     1.20190
Mn3392     Mn  0.69593380  0.50360274  0.71064442     1.10090
Cl3393     Cl  0.69333784  0.47000587  0.69289588    -0.87940
C3394       C  0.77775873  0.04898041  0.69447843     0.94390
C3395       C  0.74245839  0.44473678  0.73259422     0.94190
N3396       N  0.88657771  0.34886208  0.83332924    -0.08100
N3397       N  0.91164071  0.35806446  0.84109136    -0.60220
N3398       N  0.86149061  0.29374712  0.82018387    -0.07780
N3399       N  0.87089087  0.26948924  0.82143613    -0.62340
N3400       N  0.88512893  0.30618948  0.81312427    -0.07370
N3401       N  0.91064535  0.29096843  0.80935104    -0.60190
N3402       N  0.86201652  0.33740842  0.84049659    -0.07050
N3403       N  0.86989132  0.33882274  0.85335760    -0.62700
C3404       C  0.90075296  0.35190769  0.85352855     0.94080
C3405       C  0.90154061  0.26810573  0.81448166     0.93860
N3406       N  0.75307556  0.30794936  0.81232441    -0.08280
N3407       N  0.72855856  0.29204874  0.80796219    -0.60790
N3408       N  0.77731148  0.33671116  0.84096769    -0.06400
N3409       N  0.76920800  0.33620868  0.85385666    -0.62050
N3410       N  0.75256134  0.34858819  0.83408637    -0.08310
N3411       N  0.72723401  0.35624736  0.84215365    -0.61060
N3412       N  0.77709107  0.29541683  0.81934813    -0.06040
N3413       N  0.76938959  0.27083140  0.81976198    -0.62130
Mn3414     Mn  0.81940360  0.31526502  0.83062428     1.18440
C3415       C  0.73919811  0.26896046  0.81258174     0.96160
C3416       C  0.73798053  0.34864210  0.85447822     0.96830
N3417       N  0.88132545  0.34365595  0.78964794    -0.08330
N3418       N  0.88835212  0.32239877  0.78308460    -0.64640
N3419       N  0.86442308  0.40198781  0.80396796    -0.07130
N3420       N  0.87246370  0.42651021  0.80352192    -0.65310
N3421       N  0.88906994  0.38909047  0.81019074    -0.07840
N3422       N  0.91451227  0.40454931  0.81424500    -0.64900
N3423       N  0.85755557  0.35704620  0.78306540    -0.06730
N3424       N  0.84847692  0.34503269  0.77190270    -0.65590
Mn3425     Mn  0.88647817  0.34732339  0.81149287     1.10660
C3426       C  0.86789281  0.32345791  0.77197806     0.97380
C3427       C  0.90371416  0.42788508  0.81004851     0.97460
N3428       N  0.75590356  0.39161911  0.81203608    -0.07850
N3429       N  0.73201584  0.40724961  0.81673424    -0.63220
N3430       N  0.77986927  0.36283741  0.78365624    -0.07160
N3431       N  0.77404069  0.36889722  0.77114606    -0.59950
N3432       N  0.75135252  0.35399626  0.78944818    -0.08470
N3433       N  0.72447904  0.35609984  0.78085911    -0.62790
N3434       N  0.78050815  0.40417344  0.80542255    -0.07460
N3435       N  0.77327301  0.42891836  0.80542620    -0.59970
Mn3436     Mn  0.75220950  0.35023347  0.81189677     1.20190
Mn3437     Mn  0.82114460  0.38223180  0.79403021     1.10090
Cl3438     Cl  0.81948080  0.34878091  0.81225086    -0.87940
C3439       C  0.74305721  0.43046346  0.81266219     0.94390
C3440       C  0.73970206  0.36469826  0.76929276     0.94190
C3441       C  0.71507112  0.42496625  0.75319674    -0.15320
C3442       C  0.73390873  0.42225266  0.74118839     0.06830
C3443       C  0.74374333  0.39759181  0.73722934    -0.15320
C3444       C  0.73801953  0.37657355  0.74567568    -0.15320
C3445       C  0.72328051  0.37974394  0.75845592     0.06830
C3446       C  0.70985985  0.40390157  0.76176777    -0.15320
H3447       H  0.70639017  0.44365095  0.75637419     0.10810
H3448       H  0.75734399  0.39465963  0.72785709     0.10810
H3449       H  0.74943190  0.35838517  0.74296011     0.10810
H3450       H  0.69940037  0.40720683  0.77167670     0.10810
C3451       C  0.61963188  0.02493588  0.76746731    -0.15320
C3452       C  0.60972923  0.04952247  0.76322734     0.06830
C3453       C  0.59205713  0.05204172  0.75086180    -0.15320
C3454       C  0.58768008  0.03082467  0.74237250    -0.15320
C3455       C  0.60042981  0.50661204  0.74616928     0.06830
C3456       C  0.61471267  0.50379168  0.75911638    -0.15320
H3457       H  0.63254030  0.02213584  0.77705546     0.10810
H3458       H  0.58357466  0.07067639  0.74739760     0.10810
H3459       H  0.57788465  0.03393274  0.73229434     0.10810
H3460       H  0.62585242  0.48563997  0.76218750     0.10810
C3461       C  0.97867024  0.47328067  0.81808424    -0.15320
C3462       C  0.96665049  0.49613390  0.81224285     0.06830
C3463       C  0.93354593  0.99647891  0.80592394    -0.15320
C3464       C  0.91286784  0.47437365  0.80541252    -0.15320
C3465       C  0.92495716  0.45147686  0.81117430     0.06830
C3466       C  0.95800812  0.45114462  0.81754814    -0.15320
H3467       H  0.50401515  0.47250377  0.82308476     0.10810
H3468       H  0.92352996  0.01386624  0.80141156     0.10810
H3469       H  0.88752589  0.47517775  0.80041626     0.10810
H3470       H  0.96799640  0.43374514  0.82205807     0.10810
C3471       C  0.70950051  0.20023759  0.81662647    -0.15320
C3472       C  0.67645815  0.20062631  0.81024002     0.06830
C3473       C  0.66446595  0.22354401  0.80447720    -0.15320
C3474       C  0.68513313  0.24564324  0.80505720    -0.15320
C3475       C  0.71814834  0.24528572  0.81144478     0.06830
C3476       C  0.73016609  0.22237771  0.81722902    -0.15320
H3477       H  0.71942947  0.18281279  0.82112902     0.10810
H3478       H  0.63914926  0.22439332  0.79946501     0.10810
H3479       H  0.67512471  0.26306032  0.80057526     0.10810
H3480       H  0.75545386  0.22158418  0.82227125     0.10810
C3481       C  0.66599579  0.47264155  0.82160869    -0.15320
C3482       C  0.67442098  0.49530279  0.81483365     0.06830
C3483       C  0.70666723  0.99700316  0.80793539    -0.15320
C3484       C  0.72972662  0.47629156  0.80758267    -0.15320
C3485       C  0.72095426  0.45343748  0.81410052     0.06830
C3486       C  0.68907177  0.45190678  0.82125158    -0.15320
H3487       H  0.64157932  0.47089542  0.82709936     0.10810
H3488       H  0.71405871  0.01435175  0.80268849     0.10810
H3489       H  0.75397223  0.47798274  0.80197970     0.10810
H3490       H  0.68159630  0.43447029  0.82640289     0.10810
C3491       C  0.97998803  0.22664645  0.80620167    -0.15320
C3492       C  0.97194222  0.20406243  0.81311622     0.06830
C3493       C  0.94062276  0.20272626  0.82061965    -0.15320
C3494       C  0.91744294  0.22336134  0.82099652    -0.15320
C3495       C  0.92518468  0.24579522  0.81391428     0.06830
C3496       C  0.95680382  0.24732079  0.80659647    -0.15320
H3497       H  0.50375880  0.22815665  0.80030061     0.10810
H3498       H  0.93368038  0.18551529  0.82607796     0.10810
H3499       H  0.89353675  0.22175302  0.82681108     0.10810
H3500       H  0.96360027  0.26450287  0.80108718     0.10810
C3501       C  0.86594553  0.25521050  0.75917440    -0.15320
C3502       C  0.85128755  0.25789327  0.74627989     0.06830
C3503       C  0.83824967  0.28203635  0.74249636    -0.15320
C3504       C  0.84253653  0.30330174  0.75097091    -0.15320
C3505       C  0.86047511  0.30091149  0.76329138     0.06830
C3506       C  0.87081093  0.27639657  0.76749493    -0.15320
H3507       H  0.87733123  0.23712893  0.76222917     0.10810
H3508       H  0.82817836  0.28505149  0.73245026     0.10810
H3509       H  0.83373010  0.32187461  0.74753411     0.10810
H3510       H  0.88395795  0.27367837  0.77704305     0.10810
C3511       C  0.58371072  0.32185838  0.68822443    -0.15320
C3512       C  0.54984923  0.32215128  0.69377674     0.06830
C3513       C  0.53720526  0.34483492  0.69944697    -0.15320
C3514       C  0.55806834  0.36682742  0.69960591    -0.15320
C3515       C  0.59189660  0.36657324  0.69404705     0.06830
C3516       C  0.60457292  0.34389781  0.68835713    -0.15320
H3517       H  0.59414209  0.30459139  0.68385091     0.10810
H3518       H  0.51121834  0.34557962  0.70383723     0.10810
H3519       H  0.54755996  0.38408552  0.70395697     0.10810
H3520       H  0.63053434  0.34321895  0.68393555     0.10810
C3521       C  0.85384238  0.09432033  0.68841156    -0.15320
C3522       C  0.84128964  0.11693624  0.69420559     0.06830
C3523       C  0.80758611  0.11710742  0.69987954    -0.15320
C3524       C  0.78674386  0.09508197  0.69973441    -0.15320
C3525       C  0.79928384  0.07246425  0.69395265     0.06830
C3526       C  0.83301046  0.07227170  0.68828498    -0.15320
H3527       H  0.87969730  0.09368997  0.68389956     0.10810
H3528       H  0.79717557  0.13431661  0.70431630     0.10810
H3529       H  0.76086197  0.09574613  0.70421665     0.10810
H3530       H  0.84336899  0.05506821  0.68381967     0.10810
C3531       C  0.81315988  0.32380157  0.68395821    -0.15320
C3532       C  0.84537618  0.32512321  0.69098924     0.06830
C3533       C  0.85435815  0.34766399  0.69768627    -0.15320
C3534       C  0.83118264  0.36831878  0.69758680    -0.15320
C3535       C  0.79865951  0.36681522  0.69077403     0.06830
C3536       C  0.78997819  0.34444534  0.68386764    -0.15320
H3537       H  0.80552764  0.30660021  0.67868925     0.10810
H3538       H  0.87885443  0.34913696  0.70323039     0.10810
H3539       H  0.83869437  0.38545413  0.70293428     0.10810
H3540       H  0.76533161  0.34288680  0.67842787     0.10810
C3541       C  0.58082227  0.11807046  0.69755703    -0.15320
C3542       C  0.54804238  0.11650352  0.69093121     0.06830
C3543       C  0.53898471  0.09399265  0.68421709    -0.15320
C3544       C  0.56207885  0.07329028  0.68430324    -0.15320
C3545       C  0.59458779  0.07470413  0.69113171     0.06830
C3546       C  0.60390704  0.09736710  0.69764866    -0.15320
H3547       H  0.58863273  0.13530741  0.70275250     0.10810
H3548       H  0.51411533  0.09237085  0.67893177     0.10810
H3549       H  0.55417151  0.05598954  0.67918262     0.10810
H3550       H  0.62864386  0.09892289  0.70302899     0.10810
C3551       C  0.49306845  0.14777636  0.73725050    -0.15320
C3552       C  0.48382784  0.17249884  0.74131020     0.06830
C3553       C  0.96542839  0.17531710  0.75340639    -0.15320
C3554       C  0.96008523  0.15423819  0.76195360    -0.15320
C3555       C  0.47290639  0.12997019  0.75851801     0.06830
C3556       C  0.48718752  0.12675064  0.74566823    -0.15320
H3557       H  0.50631137  0.14478089  0.72780916     0.10810
H3558       H  0.95722022  0.19406668  0.75666102     0.10810
H3559       H  0.95000457  0.15756545  0.77191742     0.10810
H3560       H  0.49813687  0.10846552  0.74285698     0.10810
C3561       C  0.60319398  0.21889028  0.62908513    -0.15320
C3562       C  0.58771993  0.21864060  0.61634194     0.06830
C3563       C  0.55089136  0.21990776  0.61503474    -0.15320
C3564       C  0.52968129  0.22056957  0.62635992    -0.15320
C3565       C  0.54510559  0.22072318  0.63910644     0.06830
C3566       C  0.58198392  0.22030407  0.64041812    -0.15320
H3567       H  0.63153032  0.21789674  0.63026065     0.10810
H3568       H  0.53841156  0.21953132  0.60526032     0.10810
H3569       H  0.50131149  0.22081113  0.62517566     0.10810
H3570       H  0.59435912  0.22016424  0.65021171     0.10810
C3571       C  0.77831332  0.21722433  0.62864538    -0.15320
C3572       C  0.79348101  0.21693531  0.61584710     0.06830
C3573       C  0.83037822  0.21816449  0.61476756    -0.15320
C3574       C  0.85171612  0.21880508  0.62626304    -0.15320
C3575       C  0.83655708  0.21906915  0.63906009     0.06830
C3576       C  0.79963034  0.21868738  0.64013258    -0.15320
H3577       H  0.74998180  0.21629025  0.62976026     0.10810
H3578       H  0.84279481  0.21780714  0.60503095     0.10810
H3579       H  0.88007674  0.21903928  0.62515716     0.10810
H3580       H  0.78725096  0.21866390  0.64987903     0.10810
C3581       C  0.85295523  0.46871434  0.62870710    -0.15320
C3582       C  0.83730069  0.46796667  0.61599348     0.06830
C3583       C  0.80044207  0.46901481  0.61477365    -0.15320
C3584       C  0.77940682  0.46995593  0.62614746    -0.15320
C3585       C  0.79499974  0.47060116  0.63886668     0.06830
C3586       C  0.83190593  0.47040124  0.64008658    -0.15320
H3587       H  0.88131827  0.46791547  0.62982541     0.10810
H3588       H  0.78780994  0.46827012  0.60503407     0.10810
H3589       H  0.75101894  0.47001052  0.62502037     0.10810
H3590       H  0.84443524  0.47063639  0.64985077     0.10810
C3591       C  0.52822673  0.46664444  0.62843812    -0.15320
C3592       C  0.54339983  0.46660808  0.61563468     0.06830
C3593       C  0.58029934  0.46793649  0.61457702    -0.15320
C3594       C  0.60162124  0.46849131  0.62608482    -0.15320
C3595       C  0.58645507  0.46857150  0.63888397     0.06830
C3596       C  0.54952343  0.46802480  0.63994066    -0.15320
H3597       H  0.99989879  0.46561152  0.62954545     0.10810
H3598       H  0.59273600  0.46775820  0.60484278     0.10810
H3599       H  0.62998114  0.46884663  0.62498507     0.10810
H3600       H  0.53712729  0.46784819  0.64968459     0.10810
C3601       C  0.52936094  0.33858538  0.56797782    -0.15320
C3602       C  0.54077902  0.36117268  0.56166900     0.06830
C3603       C  0.57366491  0.36149737  0.55529044    -0.15320
C3604       C  0.59461803  0.33957540  0.55514989    -0.15320
C3605       C  0.58302002  0.31693588  0.56137229     0.06830
C3606       C  0.55027362  0.31669769  0.56783347    -0.15320
H3607       H  0.50423984  0.33780779  0.57304798     0.10810
H3608       H  0.58323904  0.37869747  0.55043216     0.10810
H3609       H  0.61973213  0.34029088  0.55006963     0.10810
H3610       H  0.54063916  0.29951649  0.57269283     0.10810
C3611       C  0.79895616  0.06583839  0.56777481    -0.15320
C3612       C  0.83184990  0.06618121  0.56141334     0.06830
C3613       C  0.84369766  0.08899033  0.55543682    -0.15320
C3614       C  0.82287071  0.11095784  0.55570173    -0.15320
C3615       C  0.78984264  0.11055320  0.56197332     0.06830
C3616       C  0.77815864  0.08780691  0.56805547    -0.15320
H3617       H  0.78913290  0.04852537  0.57244633     0.10810
H3618       H  0.86893044  0.08981303  0.55044516     0.10810
H3619       H  0.83267274  0.12826890  0.55102060     0.10810
H3620       H  0.75291739  0.08696774  0.57303645     0.10810
C3621       C  0.52753823  0.09080692  0.55540933    -0.15320
C3622       C  0.53663168  0.06783189  0.56172528     0.06830
C3623       C  0.56901814  0.06618219  0.56864589    -0.15320
C3624       C  0.59192918  0.08706648  0.56921943    -0.15320
C3625       C  0.58284375  0.11004090  0.56291597     0.06830
C3626       C  0.55046281  0.11172959  0.55599896    -0.15320
H3627       H  0.50296414  0.09253202  0.54994180     0.10810
H3628       H  0.57685220  0.04862673  0.57359094     0.10810
H3629       H  0.61654132  0.08529079  0.57466379     0.10810
H3630       H  0.54271810  0.12930443  0.55105336     0.10810
C3631       C  0.80486416  0.35950223  0.55386465    -0.15320
C3632       C  0.83465405  0.35904360  0.56232933     0.06830
C3633       C  0.84080549  0.33753261  0.57035944    -0.15320
C3634       C  0.81743295  0.31689586  0.56998818    -0.15320
C3635       C  0.78757877  0.31736751  0.56155532     0.06830
C3636       C  0.78148838  0.33884428  0.55348582    -0.15320
H3637       H  0.79951271  0.37592979  0.54754837     0.10810
H3638       H  0.86329687  0.33681860  0.57705858     0.10810
H3639       H  0.82282766  0.30047632  0.57630431     0.10810
H3640       H  0.75902524  0.33952688  0.54677503     0.10810
C3641       C  0.74405175  0.27890198  0.49116544    -0.15320
C3642       C  0.75320624  0.30229776  0.49706937     0.06830
C3643       C  0.76918973  0.30193034  0.50982719    -0.15320
C3644       C  0.77601548  0.27878659  0.51645893    -0.15320
C3645       C  0.76729013  0.25538988  0.51043664     0.06830
C3646       C  0.75138276  0.25581776  0.49767935    -0.15320
H3647       H  0.73356909  0.27838135  0.48105785     0.10810
H3648       H  0.77818538  0.31959010  0.51433523     0.10810
H3649       H  0.78642404  0.27923475  0.52657479     0.10810
H3650       H  0.74277469  0.23815543  0.49306585     0.10810
C3651       C  0.90770752  0.40513701  0.49022510    -0.15320
C3652       C  0.89066648  0.38148365  0.49196871     0.06830
C3653       C  0.86824526  0.37829498  0.50305862    -0.15320
C3654       C  0.86298926  0.39817927  0.51216869    -0.15320
C3655       C  0.88006911  0.42180469  0.51046354     0.06830
C3656       C  0.90254016  0.42503437  0.49938394    -0.15320
H3657       H  0.92480074  0.40834194  0.48172755     0.10810
H3658       H  0.85439125  0.36042270  0.50465402     0.10810
H3659       H  0.84583050  0.39492984  0.52064271     0.10810
H3660       H  0.91637573  0.44292946  0.49783340     0.10810
C3661       C  0.01433492  0.05334382  0.50888564    -0.15320
C3662       C  0.49919604  0.05282951  0.49597220     0.06830
C3663       C  0.49185637  0.02895367  0.49023420    -0.15320
C3664       C  0.50010702  0.00632273  0.49706360    -0.15320
C3665       C  0.51540434  0.00679280  0.50993507     0.06830
C3666       C  0.02224669  0.03065566  0.51579248    -0.15320
H3667       H  0.02194707  0.07141204  0.51331012     0.10810
H3668       H  0.48206703  0.02776267  0.48004594     0.10810
H3669       H  0.49282168  0.48825442  0.49256242     0.10810
H3670       H  0.03203921  0.03177116  0.52598117     0.10810
C3671       C  0.98593330  0.21476366  0.43486049    -0.15320
C3672       C  0.97530600  0.19253235  0.44169012     0.06830
C3673       C  0.94282360  0.19227885  0.44834233    -0.15320
C3674       C  0.92147305  0.21392416  0.44826809    -0.15320
C3675       C  0.93226709  0.23625125  0.44157175     0.06830
C3676       C  0.96458596  0.23644459  0.43480348    -0.15320
H3677       H  0.51073400  0.21541251  0.42956408     0.10810
H3678       H  0.93384928  0.17533141  0.45359477     0.10810
H3679       H  0.89671110  0.21325952  0.45359294     0.10810
H3680       H  0.97356314  0.25343231  0.42958667     0.10810
C3681       C  0.69172620  0.44209695  0.45020764    -0.15320
C3682       C  0.72438375  0.44238594  0.44367630     0.06830
C3683       C  0.73511116  0.46462836  0.43687745    -0.15320
C3684       C  0.71377132  0.48627213  0.43673089    -0.15320
C3685       C  0.68130340  0.48610048  0.44338227     0.06830
C3686       C  0.67033358  0.46377045  0.45004965    -0.15320
H3687       H  0.68267612  0.42512207  0.45541521     0.10810
H3688       H  0.76002715  0.46532989  0.43165939     0.10810
H3689       H  0.72288799  0.00323153  0.43152213     0.10810
H3690       H  0.64543251  0.46313949  0.45527958     0.10810
C3691       C  0.94393974  0.48782298  0.43626863    -0.15320
C3692       C  0.97678655  0.48590340  0.44286235     0.06830
C3693       C  0.98700309  0.46231542  0.44822440    -0.15320
C3694       C  0.96473349  0.44109762  0.44706099    -0.15320
C3695       C  0.93182756  0.44305842  0.44052566     0.06830
C3696       C  0.92165294  0.46662610  0.43512864    -0.15320
H3697       H  0.93525428  0.00582653  0.43203125     0.10810
H3698       H  0.51199139  0.46031090  0.45338258     0.10810
H3699       H  0.97335338  0.42309388  0.45131403     0.10810
H3700       H  0.89661754  0.46865670  0.42999972     0.10810
C3701       C  0.67317766  0.21622432  0.43486177    -0.15320
C3702       C  0.68263530  0.19276440  0.44058100     0.06830
C3703       C  0.71515472  0.19082328  0.44741193    -0.15320
C3704       C  0.73763949  0.21194078  0.44859658    -0.15320
C3705       C  0.72801297  0.23546853  0.44300319     0.06830
C3706       C  0.69563735  0.23734955  0.43606290    -0.15320
H3707       H  0.64849324  0.21825645  0.42949223     0.10810
H3708       H  0.72329073  0.17291229  0.45190709     0.10810
H3709       H  0.76222857  0.20994825  0.45402864     0.10810
H3710       H  0.68743609  0.25529055  0.43161431     0.10810
C3711       C  0.65564797  0.15496885  0.49106333    -0.15320
C3712       C  0.63822327  0.13151491  0.49294298     0.06830
C3713       C  0.61577431  0.12864206  0.50403076    -0.15320
C3714       C  0.61084943  0.14872709  0.51302804    -0.15320
C3715       C  0.62827368  0.17217618  0.51116101     0.06830
C3716       C  0.65075856  0.17505913  0.50007990    -0.15320
H3717       H  0.67277241  0.15789670  0.48254800     0.10810
H3718       H  0.60167768  0.11089339  0.50570187     0.10810
H3719       H  0.59369999  0.14578022  0.52153338     0.10810
H3720       H  0.66484650  0.19281724  0.49842545     0.10810
C3721       C  0.90759722  0.10239730  0.87678378    -0.15320
C3722       C  0.92261464  0.10195578  0.88966326     0.06830
C3723       C  0.95957211  0.10203022  0.89088545    -0.15320
C3724       C  0.98101057  0.10160900  0.87945613    -0.15320
C3725       C  0.96593617  0.10194345  0.86657429     0.06830
C3726       C  0.92901294  0.10279993  0.86537765    -0.15320
H3727       H  0.87924870  0.10234130  0.87553704     0.10810
H3728       H  0.97188888  0.10152358  0.90068617     0.10810
H3729       H  0.50934779  0.10094921  0.88068086     0.10810
H3730       H  0.91660801  0.10292003  0.85558996     0.10810
C3731       C  0.71017838  0.10546965  0.86389019    -0.15320
C3732       C  0.67331324  0.10552618  0.86512219     0.06830
C3733       C  0.65802242  0.10675799  0.87780916    -0.15320
C3734       C  0.67934386  0.10736985  0.88917813    -0.15320
C3735       C  0.71616322  0.10599843  0.88799793     0.06830
C3736       C  0.73152280  0.10532745  0.87529551    -0.15320
H3737       H  0.72244436  0.10437021  0.85414288     0.10810
H3738       H  0.62966046  0.10684035  0.87892535     0.10810
H3739       H  0.66692489  0.10775817  0.89891530     0.10810
H3740       H  0.75984982  0.10427304  0.87421430     0.10810
C3741       C  0.70960771  0.35068978  0.89101761    -0.15320
C3742       C  0.67264251  0.35099731  0.88982741     0.06830
C3743       C  0.65757191  0.35146547  0.87695688    -0.15320
C3744       C  0.67892067  0.35159096  0.86553279    -0.15320
C3745       C  0.71583378  0.35043214  0.86669343     0.06830
C3746       C  0.73097484  0.35000089  0.87956662    -0.15320
H3747       H  0.72196688  0.35013306  0.90080999     0.10810
H3748       H  0.62922077  0.35168082  0.87572991     0.10810
H3749       H  0.66645176  0.35179578  0.85575715     0.10810
H3750       H  0.75930553  0.34911127  0.88076857     0.10810
C3751       C  0.98093325  0.35592442  0.87569583    -0.15320
C3752       C  0.96550742  0.35605032  0.88839443     0.06830
C3753       C  0.92864366  0.35662777  0.88955606    -0.15320
C3754       C  0.90739500  0.35579892  0.87816118    -0.15320
C3755       C  0.92278006  0.35514852  0.86547107     0.06830
C3756       C  0.95964632  0.35586105  0.86427373    -0.15320
H3757       H  0.50929907  0.35547075  0.87462878     0.10810
H3758       H  0.91619494  0.35656079  0.89929139     0.10810
H3759       H  0.87903377  0.35528889  0.87925775     0.10810
H3760       H  0.97200970  0.35522911  0.85453111     0.10810
C3761       C  0.97153617  0.47530570  0.94991193    -0.15320
C3762       C  0.96004414  0.45280532  0.94360846     0.06830
C3763       C  0.92725891  0.45263403  0.93704550    -0.15320
C3764       C  0.90619133  0.47444912  0.93689213    -0.15320
C3765       C  0.91749969  0.99688105  0.94329433     0.06830
C3766       C  0.95043008  0.99714490  0.94976577    -0.15320
H3767       H  0.49667341  0.47596751  0.95506778     0.10810
H3768       H  0.91771012  0.43555739  0.93212034     0.10810
H3769       H  0.88104550  0.47373900  0.93174595     0.10810
H3770       H  0.95992923  0.01423734  0.95469166     0.10810
C3771       C  0.65551206  0.22413403  0.93662000    -0.15320
C3772       C  0.66692272  0.24650695  0.94305402     0.06830
C3773       C  0.69998502  0.24676113  0.94941743    -0.15320
C3774       C  0.72112999  0.22497044  0.94943778    -0.15320
C3775       C  0.70954657  0.20251572  0.94312042     0.06830
C3776       C  0.67663285  0.20234205  0.93665275    -0.15320
H3777       H  0.63025489  0.22345449  0.93155237     0.10810
H3778       H  0.70956470  0.26381339  0.95435934     0.10810
H3779       H  0.74637101  0.22563187  0.95451960     0.10810
H3780       H  0.66702796  0.18528549  0.93172360     0.10810
C3781       C  0.90433350  0.22679300  0.94890699    -0.15320
C3782       C  0.91395824  0.20365898  0.94303206     0.06830
C3783       C  0.94654005  0.20203875  0.93637196    -0.15320
C3784       C  0.96917375  0.22307993  0.93566485    -0.15320
C3785       C  0.95962273  0.24617789  0.94157792     0.06830
C3786       C  0.92697934  0.24786466  0.94818698    -0.15320
H3787       H  0.87956474  0.22852771  0.95414371     0.10810
H3788       H  0.95476704  0.18437844  0.93175775     0.10810
H3789       H  0.49399815  0.22129649  0.93046586     0.10810
H3790       H  0.91884297  0.26553401  0.95281696     0.10810
C3791       C  0.69649132  0.45190048  0.93604417    -0.15320
C3792       C  0.66464082  0.45329882  0.94320978     0.06830
C3793       C  0.65583284  0.47617571  0.94953083    -0.15320
C3794       C  0.67853258  0.99720935  0.94874352    -0.15320
C3795       C  0.71042360  0.99576845  0.94161174     0.06830
C3796       C  0.71918956  0.47291799  0.93526547    -0.15320
H3797       H  0.70406338  0.43444062  0.93107230     0.10810
H3798       H  0.63167667  0.97772851  0.95517903     0.10810
H3799       H  0.67102354  0.01466694  0.95373276     0.10810
H3800       H  0.74339532  0.47133528  0.92964555     0.10810
C3801       C  0.78276508  0.03892768  0.01371963    -0.15320
C3802       C  0.76514793  0.01553250  0.01189331     0.06830
C3803       C  0.74255159  0.01291213  0.00074985    -0.15320
C3804       C  0.73776548  0.03312023  0.99164830    -0.15320
C3805       C  0.75542692  0.05649929  0.99345764     0.06830
C3806       C  0.77798962  0.05913916  0.00461152    -0.15320
H3807       H  0.80003145  0.04170450  0.02225503     0.10810
H3808       H  0.72830039  0.49523817  0.99909617     0.10810
H3809       H  0.72051360  0.03032722  0.98311027     0.10810
H3810       H  0.79225933  0.07680998  0.00625351     0.10810
C3811       C  0.64316288  0.43357413  0.99678844    -0.15320
C3812       C  0.62813871  0.43289394  0.00964927     0.06830
C3813       C  0.62152867  0.40894893  0.01555051    -0.15320
C3814       C  0.62979859  0.38638618  0.00878922    -0.15320
C3815       C  0.64467803  0.38707517  0.99590093     0.06830
C3816       C  0.65149273  0.41102212  0.99004077    -0.15320
H3817       H  0.65029575  0.45171990  0.99226579     0.10810
H3818       H  0.61194032  0.40768006  0.02573353     0.10810
H3819       H  0.62258352  0.36824243  0.01329608     0.10810
H3820       H  0.66105930  0.41230708  0.97985485     0.10810
C3821       C  0.89274366  0.18630521  0.99620456    -0.15320
C3822       C  0.87753482  0.18577925  0.00904009     0.06830
C3823       C  0.86966730  0.16192605  0.01480672    -0.15320
C3824       C  0.87756605  0.13929174  0.00808098    -0.15320
C3825       C  0.89300537  0.13978198  0.99529432     0.06830
C3826       C  0.90038664  0.16363292  0.98942005    -0.15320
H3827       H  0.90071921  0.20434896  0.99177446     0.10810
H3828       H  0.85976924  0.16073177  0.02494987     0.10810
H3829       H  0.86984465  0.12124191  0.01257015     0.10810
H3830       H  0.91029105  0.16476955  0.97927848     0.10810
C3831       C  0.59314532  0.11764325  0.06975163    -0.15320
C3832       C  0.56122836  0.11786816  0.06258527     0.06830
C3833       C  0.55055746  0.09569280  0.05578069    -0.15320
C3834       C  0.57162706  0.07382989  0.05600392    -0.15320
C3835       C  0.60373070  0.07369737  0.06305880     0.06830
C3836       C  0.61418491  0.09577791  0.06998890    -0.15320
H3837       H  0.60203525  0.13444955  0.07508856     0.10810
H3838       H  0.52611783  0.09531813  0.05015099     0.10810
H3839       H  0.56277465  0.05703598  0.05064651     0.10810
H3840       H  0.63865288  0.09617995  0.07559689     0.10810
C3841       C  0.86499770  0.34654449  0.06912930    -0.15320
C3842       C  0.85400790  0.32418576  0.06258376     0.06830
C3843       C  0.82139439  0.32397564  0.05588360    -0.15320
C3844       C  0.80031958  0.34580667  0.05561913    -0.15320
C3845       C  0.81153706  0.36826391  0.06201821     0.06830
C3846       C  0.84396208  0.36838041  0.06884423    -0.15320
H3847       H  0.88988702  0.34719236  0.07445641     0.10810
H3848       H  0.81212909  0.30693338  0.05084995     0.10810
H3849       H  0.77545514  0.34518472  0.05027336     0.10810
H3850       H  0.85326400  0.38543098  0.07386177     0.10810
C3851       C  0.86547426  0.09440588  0.05614202    -0.15320
C3852       C  0.85670652  0.11743551  0.06230516     0.06830
C3853       C  0.82499225  0.11892647  0.06957219    -0.15320
C3854       C  0.80235705  0.09787287  0.07056734    -0.15320
C3855       C  0.81101879  0.07489836  0.06432160     0.06830
C3856       C  0.84283016  0.07336331  0.05712783    -0.15320
H3857       H  0.88951746  0.09275342  0.05043385     0.10810
H3858       H  0.81746301  0.13649814  0.07444682     0.10810
H3859       H  0.77823259  0.09955195  0.07622940     0.10810
H3860       H  0.85031156  0.05582340  0.05221389     0.10810
C3861       C  0.61384309  0.34464442  0.05496390    -0.15320
C3862       C  0.60747936  0.36687317  0.06226956     0.06830
C3863       C  0.57774165  0.36776532  0.07067894    -0.15320
C3864       C  0.55469449  0.34694716  0.07169809    -0.15320
C3865       C  0.56098313  0.32475856  0.06435800     0.06830
C3866       C  0.59079896  0.32380240  0.05599500    -0.15320
H3867       H  0.63622412  0.34351500  0.04832055     0.10810
H3868       H  0.57210079  0.38470382  0.07645544     0.10810
H3869       H  0.53222959  0.34812680  0.07830214     0.10810
H3870       H  0.59635129  0.30687606  0.05019611     0.10810
C3871       C  0.53367706  0.28875799  0.01424717    -0.15320
C3872       C  0.51589423  0.26539499  0.01251296     0.06830
C3873       C  0.99319920  0.26278881  0.00138683    -0.15320
C3874       C  0.98848279  0.28293972  0.99222747    -0.15320
C3875       C  0.50631727  0.30628063  0.99393885     0.06830
C3876       C  0.52899080  0.30891116  0.00507201    -0.15320
H3877       H  0.55103086  0.29154717  0.02275576     0.10810
H3878       H  0.97879663  0.24516023  0.99978934     0.10810
H3879       H  0.97112236  0.28013337  0.98372257     0.10810
H3880       H  0.54340151  0.32654228  0.00665287     0.10810
C3881       C  0.56446390  0.21632298  0.14163062    -0.15320
C3882       C  0.59622228  0.20274465  0.14052119     0.06830
C3883       C  0.60573246  0.19256674  0.12812624    -0.15320
C3884       C  0.58413088  0.19613948  0.11698045    -0.15320
C3885       C  0.55266034  0.21004892  0.11799389     0.06830
C3886       C  0.54279578  0.21995543  0.13042964    -0.15320
H3887       H  0.55645117  0.22424109  0.15113177     0.10810
H3888       H  0.62990330  0.18188537  0.12702189     0.10810
H3889       H  0.59240235  0.18825955  0.10750204     0.10810
H3890       H  0.51874628  0.23081278  0.13144519     0.10810
C3891       C  0.83652083  0.21512114  0.13877073    -0.15320
C3892       C  0.80359294  0.20283444  0.13743547     0.06830
C3893       C  0.79276612  0.19497724  0.12462732    -0.15320
C3894       C  0.81444291  0.19936511  0.11344901    -0.15320
C3895       C  0.84737905  0.21168040  0.11484945     0.06830
C3896       C  0.85808563  0.21945989  0.12765703    -0.15320
H3897       H  0.84584905  0.22138136  0.14848167     0.10810
H3898       H  0.76767745  0.18541784  0.12325653     0.10810
H3899       H  0.80535631  0.19317426  0.10369413     0.10810
H3900       H  0.88317160  0.22898194  0.12910734     0.10810
C3901       C  0.86442159  0.45363177  0.12636283    -0.15320
C3902       C  0.84967633  0.45208336  0.13913280     0.06830
C3903       C  0.81293310  0.45379485  0.14064552    -0.15320
C3904       C  0.79128412  0.45789188  0.12948688    -0.15320
C3905       C  0.80618297  0.45957355  0.11671651     0.06830
C3906       C  0.84279864  0.45700074  0.11522236    -0.15320
H3907       H  0.89265684  0.45243314  0.12501911     0.10810
H3908       H  0.80111017  0.45288951  0.15048500     0.10810
H3909       H  0.76312249  0.45978170  0.13081532     0.10810
H3910       H  0.85492271  0.45836465  0.10544895     0.10810
C3911       C  0.59647232  0.45294732  0.13942778    -0.15320
C3912       C  0.55957683  0.45162423  0.13823899     0.06830
C3913       C  0.54416541  0.45383502  0.12548366    -0.15320
C3914       C  0.56520564  0.45739742  0.11413887    -0.15320
C3915       C  0.60200734  0.45967271  0.11536679     0.06830
C3916       C  0.61746945  0.45733720  0.12811669    -0.15320
H3917       H  0.60899502  0.45155420  0.14916883     0.10810
H3918       H  0.51581213  0.45297306  0.12430523     0.10810
H3919       H  0.55256779  0.45921074  0.10443630     0.10810
H3920       H  0.64574423  0.45894669  0.12932943     0.10810
C3921       C  0.59712176  0.04591553  0.19539193    -0.15320
C3922       C  0.56015628  0.04699540  0.19572596     0.06830
C3923       C  0.54385852  0.07104545  0.19628079    -0.15320
C3924       C  0.56408979  0.09354607  0.19637895    -0.15320
C3925       C  0.60099572  0.09249510  0.19547375     0.06830
C3926       C  0.61730082  0.06843838  0.19504692    -0.15320
H3927       H  0.61037148  0.02767214  0.19481396     0.10810
H3928       H  0.51541295  0.07243770  0.19648595     0.10810
H3929       H  0.55078249  0.11180329  0.19659997     0.10810
H3930       H  0.64567220  0.06706921  0.19431249     0.10810
C3931       C  0.81084397  0.34436777  0.19153510    -0.15320
C3932       C  0.84777893  0.34344369  0.19098706     0.06830
C3933       C  0.86445716  0.31963827  0.19005855    -0.15320
C3934       C  0.84460435  0.29708295  0.18996754    -0.15320
C3935       C  0.80781241  0.29791896  0.19123170     0.06830
C3936       C  0.79103226  0.32175018  0.19186667    -0.15320
H3937       H  0.79741736  0.36251092  0.19234061     0.10810
H3938       H  0.89289734  0.31847798  0.18961605     0.10810
H3939       H  0.85816628  0.27894358  0.18952142     0.10810
H3940       H  0.76267784  0.32285499  0.19282364     0.10810
C3941       C  0.86559075  0.07366370  0.18867395    -0.15320
C3942       C  0.85152863  0.04902845  0.18964515     0.06830
C3943       C  0.81473439  0.04554545  0.18976467    -0.15320
C3944       C  0.79225272  0.06654459  0.18903661    -0.15320
C3945       C  0.80642157  0.09121506  0.18855213     0.06830
C3946       C  0.84317424  0.09464176  0.18830886    -0.15320
H3947       H  0.89381393  0.07669433  0.18847991     0.10810
H3948       H  0.80335029  0.02656594  0.19032833     0.10810
H3949       H  0.76400896  0.06358452  0.18920855     0.10810
H3950       H  0.85461710  0.11360883  0.18779281     0.10810
C3951       C  0.56648951  0.29497310  0.19704608    -0.15320
C3952       C  0.60318173  0.29908371  0.19673673     0.06830
C3953       C  0.61625108  0.32403507  0.19599156    -0.15320
C3954       C  0.59286715  0.34451863  0.19491951    -0.15320
C3955       C  0.55615345  0.34034951  0.19493174     0.06830
C3956       C  0.54314108  0.31547686  0.19633487    -0.15320
H3957       H  0.55581637  0.27579245  0.19775675     0.10810
H3958       H  0.64435424  0.32758813  0.19574841     0.10810
H3959       H  0.60354136  0.36367440  0.19408589     0.10810
H3960       H  0.51503996  0.31186537  0.19651381     0.10810
C3961       C  0.94828166  0.29755576  0.37409231    -0.15320
C3962       C  0.95151361  0.31653335  0.36423326     0.06830
C3963       C  0.92930769  0.33787464  0.36445729    -0.15320
C3964       C  0.90623629  0.34132650  0.37509423    -0.15320
C3965       C  0.90601547  0.32378764  0.38572615     0.06830
C3966       C  0.92593128  0.30135245  0.38491092    -0.15320
H3967       H  0.96520570  0.28094635  0.37406217     0.10810
H3968       H  0.93134164  0.35260300  0.35683725     0.10810
H3969       H  0.89106828  0.35877386  0.37559210     0.10810
H3970       H  0.92586424  0.28757789  0.39304611     0.10810
C3971       C  0.68949381  0.34505652  0.37149789    -0.15320
C3972       C  0.67315671  0.32120577  0.36953449     0.06830
C3973       C  0.68105608  0.30104145  0.37837535    -0.15320
C3974       C  0.70374487  0.30511086  0.38932328    -0.15320
C3975       C  0.71950671  0.32914803  0.39130365     0.06830
C3976       C  0.71269830  0.34888852  0.38216607    -0.15320
H3977       H  0.68392241  0.36099347  0.36487023     0.10810
H3978       H  0.66872788  0.28251776  0.37711967     0.10810
H3979       H  0.70879889  0.28961059  0.39628696     0.10810
H3980       H  0.72433777  0.36761996  0.38356608     0.10810
C3981       C  0.65540070  0.29171253  0.24965167    -0.15320
C3982       C  0.62287587  0.29977298  0.25447067     0.06830
C3983       C  0.59229173  0.28704863  0.24973704    -0.15320
C3984       C  0.59460338  0.26446728  0.24216682    -0.15320
C3985       C  0.62769108  0.25450171  0.23905604     0.06830
C3986       C  0.65780412  0.26949687  0.24204988    -0.15320
H3987       H  0.67945042  0.30069918  0.25316869     0.10810
H3988       H  0.56664643  0.29275852  0.25309839     0.10810
H3989       H  0.57088094  0.25396166  0.23965294     0.10810
H3990       H  0.68390291  0.26320897  0.23928949     0.10810
C3991       C  0.52921936  0.34475775  0.24395876    -0.15320
C3992       C  0.53637944  0.34838404  0.25757072     0.06830
C3993       C  0.05421245  0.37101207  0.26142810    -0.15320
C3994       C  0.56032513  0.39089107  0.25232598    -0.15320
C3995       C  0.54937386  0.38858705  0.23903747     0.06830
C3996       C  0.53594230  0.36468442  0.23475608    -0.15320
H3997       H  0.51560615  0.32769648  0.24064342     0.10810
H3998       H  0.06068539  0.37434817  0.27185200     0.10810
H3999       H  0.56981202  0.40908563  0.25603462     0.10810
H4000       H  0.52643917  0.36258617  0.22460461     0.10810
C4001       C  0.91210635  0.07313005  0.37952316    -0.15320
C4002       C  0.92688938  0.07161862  0.36668537     0.06830
C4003       C  0.96368725  0.07383009  0.36541433    -0.15320
C4004       C  0.98508809  0.07827260  0.37670959    -0.15320
C4005       C  0.97022126  0.07982286  0.38954864     0.06830
C4006       C  0.93355338  0.07677799  0.39083316    -0.15320
H4007       H  0.88386491  0.07161800  0.38080443     0.10810
H4008       H  0.97579061  0.07302880  0.35563038     0.10810
H4009       H  0.51323223  0.08049008  0.37541267     0.10810
H4010       H  0.92127821  0.07796888  0.40057447     0.10810
C4011       C  0.73070456  0.06987737  0.37877126    -0.15320
C4012       C  0.71545111  0.06863016  0.36604667     0.06830
C4013       C  0.67871770  0.07067764  0.36452330    -0.15320
C4014       C  0.65756376  0.07504228  0.37565521    -0.15320
C4015       C  0.67303039  0.07666552  0.38836083     0.06830
C4016       C  0.70958625  0.07356118  0.38987576    -0.15320
H4017       H  0.75896842  0.06844995  0.38009093     0.10810
H4018       H  0.66657751  0.07002472  0.35469446     0.10810
H4019       H  0.62941197  0.07731547  0.37435355     0.10810
H4020       H  0.72210138  0.07486498  0.39962001     0.10810
C4021       C  0.78208100  0.10660923  0.24993790    -0.15320
C4022       C  0.75932660  0.10803710  0.26097927     0.06830
C4023       C  0.73916420  0.13027631  0.26262902    -0.15320
C4024       C  0.74190042  0.15066659  0.25355633    -0.15320
C4025       C  0.76480966  0.14936461  0.24256386     0.06830
C4026       C  0.78473717  0.12702239  0.24081661    -0.15320
H4027       H  0.79814860  0.08983045  0.24842803     0.10810
H4028       H  0.72155195  0.13210833  0.27106390     0.10810
H4029       H  0.72589809  0.16745295  0.25513470     0.10810
H4030       H  0.80233867  0.12528443  0.23237702     0.10810
C4031       C  0.91830307  0.18714437  0.32311342    -0.15320
C4032       C  0.92261310  0.16890051  0.31295532     0.06830
C4033       C  0.94837497  0.17299427  0.30315962    -0.15320
C4034       C  0.96938158  0.19502901  0.30350173    -0.15320
C4035       C  0.96565514  0.21286629  0.31387698     0.06830
C4036       C  0.94002229  0.20872584  0.32368980    -0.15320
H4037       H  0.89874886  0.18438432  0.33084977     0.10810
H4038       H  0.95220382  0.15921141  0.29525463     0.10810
H4039       H  0.48923638  0.19777323  0.29587638     0.10810
H4040       H  0.93672513  0.22222990  0.33176579     0.10810
C4041       C  0.66601471  0.44001402  0.32510530    -0.15320
C4042       C  0.66950709  0.42016671  0.31579138     0.06830
C4043       C  0.69519577  0.42214939  0.30581015    -0.15320
C4044       C  0.71691313  0.44373948  0.30506952    -0.15320
C4045       C  0.71251932  0.46409208  0.31403153     0.06830
C4046       C  0.68700818  0.46198944  0.32410948    -0.15320
H4047       H  0.64615761  0.43894325  0.33283938     0.10810
H4048       H  0.69832661  0.40704683  0.29854378     0.10810
H4049       H  0.73633453  0.44488758  0.29718624     0.10810
H4050       H  0.68316564  0.47738598  0.33114996     0.10810
C4051       C  0.69403541  0.17663476  0.30458457    -0.15320
C4052       C  0.71861948  0.17270934  0.31492313     0.06830
C4053       C  0.71998794  0.19013706  0.32558436    -0.15320
C4054       C  0.69627790  0.21063318  0.32609434    -0.15320
C4055       C  0.67160259  0.21442659  0.31574988     0.06830
C4056       C  0.67113848  0.19746667  0.30489537    -0.15320
H4057       H  0.69235862  0.16344212  0.29628156     0.10810
H4058       H  0.73847804  0.18737768  0.33374782     0.10810
H4059       H  0.69719602  0.22349039  0.33455056     0.10810
H4060       H  0.65229068  0.19986532  0.29681677     0.10810
C4061       C  0.93623959  0.45700831  0.32580789    -0.15320
C4062       C  0.91142241  0.45881156  0.31535465     0.06830
C4063       C  0.90924740  0.43896442  0.30597056    -0.15320
C4064       C  0.93293813  0.41846576  0.30659738    -0.15320
C4065       C  0.95840087  0.41713501  0.31684268     0.06830
C4066       C  0.95915524  0.43620951  0.32665177    -0.15320
H4067       H  0.93851984  0.47206281  0.33316711     0.10810
H4068       H  0.89054498  0.43996972  0.29776949     0.10810
H4069       H  0.93180469  0.40389155  0.29894898     0.10810
H4070       H  0.97861848  0.43568600  0.33461315     0.10810
C4071       C  0.92836151  0.00877185  0.26305344    -0.15320
C4072       C  0.91359762  0.03249852  0.25950004     0.06830
C4073       C  0.90010336  0.03560507  0.24648367    -0.15320
C4074       C  0.89785358  0.01490330  0.23774122    -0.15320
C4075       C  0.90957800  0.49056783  0.24170696     0.06830
C4076       C  0.92655054  0.48798515  0.25418724    -0.15320
H4077       H  0.93771898  0.00551056  0.27317822     0.10810
H4078       H  0.88760179  0.05339804  0.24360449     0.10810
H4079       H  0.88543224  0.01775776  0.22806539     0.10810
H4080       H  0.93633194  0.46954831  0.25742888     0.10810
N4081       N  0.75327898  0.57081186  0.29053071    -0.08100
N4082       N  0.74125525  0.58980975  0.28307832    -0.60220
N4083       N  0.77167135  0.51357284  0.30527125    -0.07780
N4084       N  0.76364764  0.98903600  0.30526227    -0.62340
N4085       N  0.74789900  0.52664562  0.31176088    -0.07370
N4086       N  0.72322882  0.51118633  0.31650055    -0.60190
N4087       N  0.77685804  0.55763876  0.28391581    -0.07050
N4088       N  0.78126916  0.56763132  0.27182798    -0.62700
C4089       C  0.75861559  0.58755920  0.27136375     0.94080
C4090       C  0.73350556  0.98773892  0.31238609     0.93860
N4091       N  0.88063239  0.52208590  0.31267778    -0.08280
N4092       N  0.90356632  0.00562639  0.31756310    -0.60790
N4093       N  0.85627701  0.55132725  0.28401720    -0.06400
N4094       N  0.86225749  0.54440567  0.27167043    -0.62050
N4095       N  0.88516479  0.55975669  0.28984718    -0.08310
N4096       N  0.91208335  0.55672844  0.28149669    -0.61060
N4097       N  0.85537370  0.51019565  0.30602459    -0.06040
N4098       N  0.86118924  0.98524637  0.30614712    -0.62130
Mn4099     Mn  0.81461242  0.53267678  0.29473757     1.18440
C4100       C  0.89114883  0.98270460  0.31353316     0.96160
C4101       C  0.89686478  0.54781639  0.27002283     0.96830
N4102       N  0.75238681  0.56790093  0.33415100    -0.08330
N4103       N  0.72654865  0.56088284  0.34210121    -0.64640
N4104       N  0.77884596  0.62205334  0.32039184    -0.07130
N4105       N  0.77123681  0.64654896  0.32179239    -0.65310
N4106       N  0.75396589  0.61050515  0.31347949    -0.07840
N4107       N  0.72929627  0.62688283  0.30987147    -0.64900
N4108       N  0.77794951  0.57893303  0.34099264    -0.06730
N4109       N  0.76999877  0.57947700  0.35381061    -0.65590
Mn4110     Mn  0.75094737  0.56871384  0.31240616     1.10660
C4111       C  0.73807143  0.56794170  0.35431432     0.97380
C4112       C  0.74045239  0.64934158  0.31501801     0.97460
N4113       N  0.88620353  0.60651225  0.31227881    -0.07850
N4114       N  0.91116702  0.62245800  0.30820857    -0.63220
N4115       N  0.86233459  0.57840962  0.34115795    -0.07160
N4116       N  0.87170709  0.58106322  0.35384309    -0.59950
N4117       N  0.88703654  0.56634899  0.33449513    -0.08470
N4118       N  0.91378306  0.56084830  0.34257595    -0.62790
N4119       N  0.86246350  0.61901383  0.31929341    -0.07460
N4120       N  0.87074997  0.64339926  0.32007185    -0.59970
Mn4121     Mn  0.88577533  0.56386659  0.31224072     1.20190
Mn4122     Mn  0.82044885  0.59984113  0.33070206     1.10090
Cl4123     Cl  0.81829294  0.56627494  0.31265124    -0.87940
C4124       C  0.90091803  0.64542570  0.31306752     0.94390
C4125       C  0.90369225  0.56984574  0.35466720     0.94190
N4126       N  0.52577826  0.87249321  0.31022672    -0.08100
N4127       N  0.00043660  0.88748528  0.30564628    -0.60220
N4128       N  0.60681574  0.87211357  0.32279213    -0.07780
N4129       N  0.62987855  0.88899321  0.32727472    -0.62340
N4130       N  0.60726468  0.87132143  0.30960459    -0.07370
N4131       N  0.63089747  0.88757102  0.30487647    -0.60190
N4132       N  0.52636474  0.87266693  0.32334266    -0.07050
N4133       N  0.00195148  0.88812424  0.32802615    -0.62700
C4134       C  0.98569239  0.89704652  0.31686279     0.94080
C4135       C  0.64500099  0.89825871  0.31601733     0.93860
N4136       N  0.60695162  0.80437639  0.34579998    -0.08280
N4137       N  0.63141228  0.79662122  0.35442489    -0.60790
N4138       N  0.52570528  0.82885269  0.34448863    -0.06400
N4139       N  0.99807576  0.83756677  0.35090965    -0.62050
N4140       N  0.52594424  0.80373238  0.34468013    -0.08310
N4141       N  0.99870203  0.79479929  0.35141098    -0.61060
N4142       N  0.60651463  0.82949789  0.34523935    -0.06040
N4143       N  0.63054064  0.83927241  0.35326185    -0.62130
Mn4144     Mn  0.56648040  0.85118573  0.33430041     1.18440
C4145       C  0.64607871  0.81873603  0.35889960     0.96160
C4146       C  0.98145258  0.81615208  0.35509855     0.96830
N4147       N  0.60292954  0.82840825  0.28559279    -0.08330
N4148       N  0.60996683  0.83234734  0.27267240    -0.64640
N4149       N  0.53125073  0.80773483  0.28526712    -0.07130
N4150       N  0.53325267  0.80874026  0.27196752    -0.65310
N4151       N  0.52165105  0.83047716  0.28941326    -0.07840
N4152       N  0.51068092  0.84459410  0.27936306    -0.64900
N4153       N  0.60903362  0.80423038  0.28845415    -0.06730
N4154       N  0.62252181  0.79233008  0.27818583    -0.65590
Mn4155     Mn  0.56492553  0.85085808  0.29865694     1.10660
C4156       C  0.62281999  0.80961231  0.26832070     0.97380
C4157       C  0.02076458  0.83216259  0.26839089     0.97460
N4158       N  0.52638459  0.76165403  0.32218763    -0.07850
N4159       N  0.00313582  0.74441640  0.32622259    -0.63220
N4160       N  0.60667545  0.76152980  0.30999852    -0.07160
N4161       N  0.63011657  0.74548383  0.30520107    -0.59950
N4162       N  0.60743803  0.76128217  0.32316271    -0.08470
N4163       N  0.63157325  0.74505611  0.32758315    -0.62790
N4164       N  0.52654200  0.76298248  0.30899768    -0.07460
N4165       N  0.00416144  0.74634857  0.30384460    -0.59970
Mn4166     Mn  0.56686435  0.78208578  0.33438294     1.20190
Mn4167     Mn  0.56793364  0.78389168  0.29829778     1.10090
Cl4168     Cl  0.56687771  0.81697874  0.31647101    -0.87940
C4169       C  0.98938982  0.73516148  0.31466568     0.94390
C4170       C  0.64567719  0.73546346  0.31622593     0.94190
N4171       N  0.52408896  0.93407022  0.21472701    -0.08100
N4172       N  0.55097620  0.92297006  0.22109733    -0.60220
N4173       N  0.99187357  0.88838318  0.19835222    -0.07780
N4174       N  0.00038768  0.86402443  0.19980830    -0.62340
N4175       N  0.51688240  0.90047900  0.19168092    -0.07370
N4176       N  0.54264309  0.88485698  0.18865965    -0.60190
N4177       N  0.99479558  0.92779534  0.22097387    -0.07050
N4178       N  0.00164446  0.91535397  0.23210066    -0.62700
C4179       C  0.53642174  0.91178514  0.23209874     0.94080
C4180       C  0.53204459  0.86218227  0.19363100     0.93860
N4181       N  0.88388380  0.90566086  0.19334610    -0.08280
N4182       N  0.85821698  0.89065833  0.18898203    -0.60790
N4183       N  0.91596779  0.93581800  0.22108789    -0.06400
N4184       N  0.92437835  0.94732804  0.23247087    -0.62050
N4185       N  0.89185036  0.94914562  0.21465138    -0.08310
N4186       N  0.88368501  0.96972965  0.22153746    -0.61060
N4187       N  0.90838936  0.89217197  0.19931547    -0.06040
N4188       N  0.90030385  0.86764009  0.19905422    -0.62130
Mn4189     Mn  0.95208128  0.91062571  0.20993314     1.18440
C4190       C  0.86903909  0.86693154  0.19251448     0.96160
C4191       C  0.90392368  0.96842253  0.23266168     0.96830
N4192       N  0.52207551  0.94613552  0.17054843    -0.08330
N4193       N  0.54773185  0.94014397  0.16222700    -0.64640
N4194       N  0.49963065  0.49806531  0.18710931    -0.07130
N4195       N  0.50779858  0.52259916  0.18747841    -0.65310
N4196       N  0.52378943  0.98442521  0.19346753    -0.07840
N4197       N  0.54917438  0.49959740  0.19797869    -0.64900
N4198       N  0.99759921  0.95925767  0.16421164    -0.06730
N4199       N  0.50597979  0.96221065  0.15146825    -0.65590
Mn4200     Mn  0.52227522  0.94173272  0.19259965     1.10660
C4201       C  0.53716613  0.95002059  0.15032068     0.97380
C4202       C  0.53859649  0.52339765  0.19433346     0.97460
N4203       N  0.89033108  0.48866778  0.19209719    -0.07850
N4204       N  0.86415197  0.50398198  0.19504367    -0.63220
N4205       N  0.91338645  0.96009922  0.16439972    -0.07160
N4206       N  0.90472422  0.96212407  0.15163033    -0.59950
N4207       N  0.88817485  0.94816064  0.17101637    -0.08470
N4208       N  0.86186623  0.94216963  0.16297058    -0.62790
N4209       N  0.91554901  0.50112969  0.18588173    -0.07460
N4210       N  0.90687139  0.52542747  0.18447611    -0.59970
Mn4211     Mn  0.88761692  0.94743915  0.19282801     1.20190
Mn4212     Mn  0.95673158  0.98005641  0.17517028     1.10090
Cl4213     Cl  0.95485266  0.94491425  0.19252295    -0.89860
C4214       C  0.87486082  0.52683789  0.19036577     0.94390
C4215       C  0.87272101  0.95067368  0.15090903     0.94190
N4216       N  0.63864743  0.70382237  0.21639510    -0.08100
N4217       N  0.61551574  0.71894081  0.22248337    -0.60220
N4218       N  0.66709343  0.75053045  0.20099472    -0.07780
N4219       N  0.65861195  0.77487861  0.20260703    -0.62340
N4220       N  0.64204678  0.73886289  0.19417444    -0.07370
N4221       N  0.61623194  0.75451394  0.19118343    -0.60190
N4222       N  0.66929946  0.70658232  0.22245468    -0.07050
N4223       N  0.66566758  0.71907651  0.23368837    -0.62700
C4224       C  0.63308951  0.72856203  0.23325169     0.94080
C4225       C  0.62685770  0.77693495  0.19631869     0.93860
N4226       N  0.77425746  0.73496414  0.19340018    -0.08280
N4227       N  0.79835373  0.75083775  0.18866291    -0.60790
N4228       N  0.74821828  0.70185225  0.22089664    -0.06400
N4229       N  0.74401300  0.69078589  0.23271875    -0.62050
N4230       N  0.77117819  0.68906904  0.21378455    -0.08310
N4231       N  0.78282455  0.66910838  0.22066142    -0.61060
N4232       N  0.75046257  0.74747695  0.20017486    -0.06040
N4233       N  0.75757103  0.77218341  0.20015197    -0.62130
Mn4234     Mn  0.70923132  0.72706426  0.21114030     1.18440
C4235       C  0.78743866  0.77403358  0.19286929     0.96160
C4236       C  0.76595399  0.67049772  0.23253662     0.96830
N4237       N  0.63574123  0.69668093  0.17232527    -0.08330
N4238       N  0.61027798  0.70604601  0.16477524    -0.64640
N4239       N  0.65984868  0.64248696  0.18654929    -0.07130
N4240       N  0.65166518  0.61792003  0.18646080    -0.65310
N4241       N  0.63694275  0.65528559  0.19385265    -0.07840
N4242       N  0.61244099  0.63957511  0.19853559    -0.64900
N4243       N  0.65865798  0.68428581  0.16499589    -0.06730
N4244       N  0.64897334  0.68478488  0.15228489    -0.65590
Mn4245     Mn  0.63786274  0.69795121  0.19418798     1.10660
C4246       C  0.61885902  0.69856901  0.15231726     0.97380
C4247       C  0.62220516  0.61627354  0.19400598     0.97460
N4248       N  0.76928394  0.65206434  0.19018153    -0.07850
N4249       N  0.79498486  0.63639309  0.19330172    -0.63220
N4250       N  0.74363807  0.68358647  0.16314103    -0.07160
N4251       N  0.75098184  0.68469217  0.15015235    -0.59950
N4252       N  0.76868374  0.69525482  0.17000375    -0.08470
N4253       N  0.79310302  0.70442087  0.16197424    -0.62790
N4254       N  0.74372567  0.63998849  0.18393099    -0.07460
N4255       N  0.75164226  0.61552544  0.18268056    -0.59970
Mn4256     Mn  0.77179951  0.69316648  0.19187511     1.20190
Mn4257     Mn  0.70120575  0.66201322  0.17427606     1.10090
Cl4258     Cl  0.70492060  0.69507382  0.19275576    -0.87940
C4259       C  0.78366804  0.61371351  0.18868473     0.94390
C4260       C  0.78193117  0.69794606  0.14960271     0.94190
N4261       N  0.88720596  0.72002476  0.08299436    -0.08100
N4262       N  0.86139566  0.71044807  0.09032988    -0.60220
N4263       N  0.91407845  0.77451769  0.06968015    -0.07780
N4264       N  0.90546237  0.79881353  0.07071427    -0.62340
N4265       N  0.89112965  0.76238316  0.06199616    -0.07370
N4266       N  0.86643138  0.77824902  0.05779536    -0.60190
N4267       N  0.91055746  0.73173471  0.09062201    -0.07050
N4268       N  0.90075137  0.73041628  0.10332042    -0.62700
C4269       C  0.87008993  0.71693823  0.10300925     0.94080
C4270       C  0.87586237  0.80093197  0.06320535     0.93860
N4271       N  0.52302365  0.76343946  0.06537529    -0.08280
N4272       N  0.54819531  0.77891077  0.06134701    -0.60790
N4273       N  0.99564318  0.73147282  0.09221349    -0.06400
N4274       N  0.00196609  0.72932804  0.10520986    -0.62050
N4275       N  0.52046107  0.71981761  0.08540181    -0.08310
N4276       N  0.54378729  0.70947215  0.09350467    -0.61060
N4277       N  0.99859069  0.77587440  0.07192631    -0.06040
N4278       N  0.00719369  0.80043748  0.07257700    -0.62130
Mn4279     Mn  0.95464612  0.75402763  0.08152563     1.18440
C4280       C  0.53819008  0.80193400  0.06579188     0.96160
C4281       C  0.53200394  0.71536820  0.10580379     0.96830
N4282       N  0.89409279  0.71799332  0.03856424    -0.08330
N4283       N  0.86927546  0.71307805  0.02946184    -0.64640
N4284       N  0.91787504  0.66686956  0.05425113    -0.07130
N4285       N  0.91013074  0.64212555  0.05402820    -0.65310
N4286       N  0.89277319  0.67921084  0.06051221    -0.07840
N4287       N  0.86797593  0.66360028  0.06469938    -0.64900
N4288       N  0.92467018  0.71199812  0.03345425    -0.06730
N4289       N  0.92195320  0.70656359  0.02076663    -0.65590
Mn4290     Mn  0.89040262  0.72022320  0.06092448     1.10660
C4291       C  0.88751457  0.70634445  0.01824510     0.97380
C4292       C  0.87894993  0.64049902  0.06070797     0.97460
N4293       N  0.52597445  0.68033055  0.06215756    -0.07850
N4294       N  0.55057083  0.66444679  0.06644577    -0.63220
N4295       N  0.00183809  0.71315082  0.03456869    -0.07160
N4296       N  0.99751359  0.72370129  0.02262357    -0.59950
N4297       N  0.52430792  0.72658846  0.04169177    -0.08470
N4298       N  0.53528852  0.74667395  0.03469582    -0.62790
N4299       N  0.00201711  0.66797639  0.05523593    -0.07460
N4300       N  0.00979012  0.64347965  0.05450859    -0.59970
Mn4301     Mn  0.52440488  0.72232916  0.06367954     1.20190
Mn4302     Mn  0.96173088  0.68921819  0.04439414     1.10090
Cl4303     Cl  0.95769266  0.72137842  0.06279778    -0.87940
C4304       C  0.54004781  0.64147183  0.06165068     0.94390
C4305       C  0.51860031  0.74452002  0.02271273     0.94190
N4306       N  0.63874360  0.96937621  0.08320234    -0.08100
N4307       N  0.61366543  0.95944782  0.09075405    -0.60220
N4308       N  0.66419618  0.52400095  0.06987708    -0.07780
N4309       N  0.65546896  0.54827328  0.07099488    -0.62340
N4310       N  0.64107951  0.51186769  0.06225128    -0.07370
N4311       N  0.61618303  0.52771878  0.05818628    -0.60190
N4312       N  0.66272601  0.98076488  0.09068294    -0.07050
N4313       N  0.65434400  0.97866286  0.10349895    -0.62700
C4314       C  0.62373839  0.96519744  0.10338878     0.94080
C4315       C  0.62563492  0.55039688  0.06361138     0.93860
N4316       N  0.77307250  0.51357845  0.06477271    -0.08280
N4317       N  0.79814836  0.52919497  0.06082706    -0.60790
N4318       N  0.74732641  0.98089831  0.09165511    -0.06400
N4319       N  0.75414957  0.97818985  0.10459028    -0.62050
N4320       N  0.77204911  0.96975827  0.08457116    -0.08310
N4321       N  0.79598985  0.95941821  0.09239233    -0.61060
N4322       N  0.74883372  0.52576000  0.07155520    -0.06040
N4323       N  0.75740725  0.55029602  0.07241010    -0.62130
Mn4324     Mn  0.70569770  0.00354325  0.08139081     1.18440
C4325       C  0.78823910  0.55204301  0.06554279     0.96160
C4326       C  0.78454435  0.96461158  0.10480896     0.96830
N4327       N  0.64327522  0.96724534  0.03869382    -0.08330
N4328       N  0.61845273  0.96049438  0.02991757    -0.64640
N4329       N  0.66817353  0.91660130  0.05402674    -0.07130
N4330       N  0.66046790  0.89183913  0.05367972    -0.65310
N4331       N  0.64341475  0.92870200  0.06059940    -0.07840
N4332       N  0.61893754  0.91293431  0.06489161    -0.64900
N4333       N  0.67402970  0.96246779  0.03337968    -0.06730
N4334       N  0.67105490  0.95649530  0.02076713    -0.65590
Mn4335     Mn  0.64064728  0.96964684  0.06108893     1.10660
C4336       C  0.63660426  0.95423127  0.01860817     0.97380
C4337       C  0.62971556  0.88996178  0.06063712     0.97460
N4338       N  0.77647280  0.93065067  0.06133447    -0.07850
N4339       N  0.80113037  0.91484739  0.06561943    -0.63220
N4340       N  0.75111241  0.96347684  0.03400216    -0.07160
N4341       N  0.74657478  0.97397154  0.02205798    -0.59950
N4342       N  0.77384253  0.97685873  0.04101368    -0.08470
N4343       N  0.78486716  0.99683791  0.03396896    -0.62790
N4344       N  0.75228156  0.91820907  0.05458482    -0.07460
N4345       N  0.75994748  0.89368821  0.05396157    -0.59970
Mn4346     Mn  0.77474873  0.97252002  0.06290144     1.20190
Mn4347     Mn  0.71152024  0.93942891  0.04402529     1.10090
Cl4348     Cl  0.70787417  0.97129404  0.06263358    -0.87940
C4349       C  0.79040530  0.89181442  0.06099329     0.94390
C4350       C  0.76787959  0.99467967  0.02205747     0.94190
N4351       N  0.49754678  0.84460787  0.96462102    -0.08100
N4352       N  0.48646443  0.82479135  0.97179134    -0.60220
N4353       N  0.51955293  0.90281070  0.95068067    -0.07780
N4354       N  0.51188869  0.92732751  0.95137551    -0.62340
N4355       N  0.49522576  0.89040332  0.94397523    -0.07370
N4356       N  0.97045087  0.90624370  0.93981922    -0.60190
N4357       N  0.52055889  0.85796134  0.97153095    -0.07050
N4358       N  0.52519241  0.84761398  0.98351236    -0.62700
C4359       C  0.50367755  0.82701722  0.98366240     0.94080
C4360       C  0.48127803  0.92925817  0.94445188     0.93860
N4361       N  0.62827565  0.89159796  0.94446718    -0.08280
N4362       N  0.65297976  0.90728912  0.94027771    -0.60790
N4363       N  0.59781291  0.85884545  0.97199835    -0.06400
N4364       N  0.60091476  0.86466095  0.98462521    -0.62050
N4365       N  0.62841517  0.85358648  0.96668778    -0.08310
N4366       N  0.65342887  0.85958443  0.97553547    -0.61060
N4367       N  0.60355156  0.90381961  0.95101985    -0.06040
N4368       N  0.61140739  0.92851818  0.95140426    -0.62130
Mn4369     Mn  0.56028878  0.88162814  0.96130253     1.18440
C4370       C  0.64225899  0.93028628  0.94454468     0.96160
C4371       C  0.63542775  0.86606979  0.98684929     0.96830
N4372       N  0.49949392  0.85043264  0.92087072    -0.08330
N4373       N  0.97537938  0.85975927  0.91274018    -0.64640
N4374       N  0.52223436  0.79492536  0.93459016    -0.07130
N4375       N  0.51358983  0.77042289  0.93384745    -0.65310
N4376       N  0.49779255  0.80736300  0.94112124    -0.07840
N4377       N  0.47244423  0.79192487  0.94502108    -0.64900
N4378       N  0.52446029  0.83886771  0.91409535    -0.06730
N4379       N  0.51775784  0.84029762  0.90112594    -0.65590
Mn4380     Mn  0.49652557  0.84843971  0.94263114     1.10660
C4381       C  0.48719923  0.85355416  0.90048391     0.97380
C4382       C  0.48249333  0.76893894  0.94052310     0.97460
N4383       N  0.63012306  0.80838380  0.94365615    -0.07850
N4384       N  0.65502412  0.79256408  0.94772723    -0.63220
N4385       N  0.60891898  0.83793818  0.91490370    -0.07160
N4386       N  0.61818733  0.83738541  0.90215345    -0.59950
N4387       N  0.63336940  0.84951702  0.92207626    -0.08470
N4388       N  0.65978590  0.85684722  0.91432531    -0.62790
N4389       N  0.60657939  0.79610595  0.93630487    -0.07460
N4390       N  0.61497614  0.77176302  0.93536731    -0.59970
Mn4391     Mn  0.63101185  0.85055451  0.94428958     1.20190
Mn4392     Mn  0.56555520  0.81641306  0.92462754     1.10090
Cl4393     Cl  0.56345290  0.84936042  0.94303672    -0.87940
C4394       C  0.64506947  0.76975878  0.94258951     0.94390
C4395       C  0.64986160  0.84939884  0.90188962     0.94190
N4396       N  0.74709502  0.59468634  0.96415813    -0.08100
N4397       N  0.73582474  0.57494781  0.97132758    -0.60220
N4398       N  0.76916789  0.65267892  0.95018701    -0.07780
N4399       N  0.76141322  0.67716830  0.95086212    -0.62340
N4400       N  0.74495020  0.64020908  0.94345801    -0.07370
N4401       N  0.72012744  0.65598736  0.93927361    -0.60190
N4402       N  0.77002619  0.60805526  0.97109376    -0.07050
N4403       N  0.77444365  0.59778874  0.98309986    -0.62700
C4404       C  0.75285111  0.57723672  0.98322377     0.94080
C4405       C  0.73085597  0.67902573  0.94390879     0.93860
N4406       N  0.87779936  0.64193102  0.94415348    -0.08280
N4407       N  0.90247172  0.65768336  0.94001572    -0.60790
N4408       N  0.84735839  0.60907809  0.97175303    -0.06400
N4409       N  0.85028030  0.61562212  0.98428799    -0.62050
N4410       N  0.87819753  0.60444586  0.96646390    -0.08310
N4411       N  0.90293003  0.61183479  0.97513670    -0.61060
N4412       N  0.85297743  0.65406054  0.95069239    -0.06040
N4413       N  0.86069174  0.67878034  0.95109976    -0.62130
Mn4414     Mn  0.80981368  0.63170764  0.96092906     1.18440
C4415       C  0.89159967  0.68063630  0.94428366     0.96160
C4416       C  0.88469494  0.61833099  0.98638529     0.96830
N4417       N  0.74977350  0.60009728  0.92048993    -0.08330
N4418       N  0.72581858  0.60951437  0.91233259    -0.64640
N4419       N  0.77264238  0.54470034  0.93436148    -0.07130
N4420       N  0.76421611  0.52013745  0.93373266    -0.65310
N4421       N  0.74806323  0.55713521  0.94082206    -0.07840
N4422       N  0.72287393  0.54163445  0.94480277    -0.64900
N4423       N  0.77479225  0.58851113  0.91375824    -0.06730
N4424       N  0.76825747  0.58999347  0.90077582    -0.65590
Mn4425     Mn  0.74648294  0.59825370  0.94220525     1.10660
C4426       C  0.73774667  0.60331728  0.90009778     0.97380
C4427       C  0.73313106  0.51861320  0.94042064     0.97460
N4428       N  0.88042368  0.55874344  0.94357684    -0.07850
N4429       N  0.90537002  0.54304294  0.94775450    -0.63220
N4430       N  0.85917400  0.58798606  0.91470702    -0.07160
N4431       N  0.86842429  0.58763660  0.90195138    -0.59950
N4432       N  0.88340742  0.59975789  0.92189559    -0.08470
N4433       N  0.90965018  0.60743978  0.91415722    -0.62790
N4434       N  0.85705085  0.54629556  0.93622098    -0.07460
N4435       N  0.86560399  0.52196677  0.93539360    -0.59970
Mn4436     Mn  0.88090693  0.60096565  0.94408667     1.20190
Mn4437     Mn  0.81593881  0.56628995  0.92440755     1.10090
Cl4438     Cl  0.81338995  0.59938544  0.94273913    -0.87940
C4439       C  0.89561480  0.52013384  0.94268003     0.94390
C4440       C  0.89985880  0.59998647  0.90171101     0.94190
N4441       N  0.64116333  0.58800762  0.42038639    -0.08100
N4442       N  0.66418723  0.57704167  0.41259124    -0.60220
N4443       N  0.61970883  0.64402113  0.43336572    -0.07780
N4444       N  0.62853218  0.66853223  0.43252340    -0.62340
N4445       N  0.64409552  0.63152926  0.44007374    -0.07370
N4446       N  0.66955840  0.64691144  0.44395642    -0.60190
N4447       N  0.61640613  0.59945662  0.41332338    -0.07050
N4448       N  0.62230196  0.59639773  0.40039154    -0.62700
C4449       C  0.65216549  0.58223827  0.40020593     0.94080
C4450       C  0.65971496  0.66994742  0.43929290     0.93860
N4451       N  0.51225179  0.63076490  0.44281217    -0.08280
N4452       N  0.98764748  0.64668589  0.44683761    -0.60790
N4453       N  0.53202921  0.60013938  0.41429762    -0.06400
N4454       N  0.52317959  0.59839487  0.40147729    -0.62050
N4455       N  0.50814699  0.58875440  0.42179460    -0.08310
N4456       N  0.98267302  0.57919174  0.41423837    -0.61060
N4457       N  0.53528491  0.64285733  0.43516803    -0.06040
N4458       N  0.52682785  0.66718177  0.43398846    -0.62130
Mn4459     Mn  0.57578269  0.62229826  0.42361719     1.18440
C4460       C  0.99723268  0.66935056  0.44136665     0.96160
C4461       C  0.99236365  0.58515460  0.40157627     0.96830
N4462       N  0.64529422  0.59388719  0.46375971    -0.08330
N4463       N  0.65702468  0.61347555  0.47085683    -0.64640
N4464       N  0.62202395  0.53598705  0.45017463    -0.07130
N4465       N  0.62963432  0.51146909  0.45096219    -0.65310
N4466       N  0.64619594  0.54840921  0.44342616    -0.07840
N4467       N  0.67077502  0.53256837  0.43929952    -0.64900
N4468       N  0.62271126  0.58041474  0.47078492    -0.06730
N4469       N  0.61900377  0.59043230  0.48279527    -0.65590
Mn4470     Mn  0.64511671  0.59034534  0.44190873     1.10660
C4471       C  0.64063047  0.61094187  0.48280894     0.97380
C4472       C  0.66000220  0.00955448  0.44401898     0.97460
N4473       N  0.51306346  0.54761949  0.44451396    -0.07850
N4474       N  0.98812307  0.53210390  0.44034032    -0.63220
N4475       N  0.54546799  0.58015612  0.47163971    -0.07160
N4476       N  0.54296503  0.57445739  0.48432447    -0.59950
N4477       N  0.51473750  0.58593591  0.46643724    -0.08470
N4478       N  0.99010218  0.58043790  0.47546835    -0.62790
N4479       N  0.53810435  0.53517546  0.45090780    -0.07460
N4480       N  0.53026052  0.51045546  0.45119891    -0.59970
Mn4481     Mn  0.51106071  0.58861782  0.44397754     1.20190
Mn4482     Mn  0.58212384  0.55717344  0.46086564     1.10090
Cl4483     Cl  0.57839960  0.58959564  0.44245776    -0.87940
C4484       C  0.99901470  0.00895156  0.44446049     0.94390
C4485       C  0.50856815  0.57370000  0.48674933     0.94190
N4486       N  0.88748407  0.83838349  0.41905506    -0.08100
N4487       N  0.90619389  0.82549058  0.41036160    -0.60220
N4488       N  0.86875872  0.89450691  0.43348776    -0.07780
N4489       N  0.87715359  0.91910392  0.43301323    -0.62340
N4490       N  0.89423045  0.88161422  0.43931899    -0.07370
N4491       N  0.92006083  0.89683966  0.44301743    -0.60190
N4492       N  0.86203086  0.85099407  0.41296664    -0.07050
N4493       N  0.86319083  0.84716270  0.39992796    -0.62700
C4494       C  0.89064283  0.83101456  0.39852241     0.94080
C4495       C  0.90925571  0.92015893  0.43911874     0.93860
N4496       N  0.76216500  0.88077124  0.44450972    -0.08280
N4497       N  0.73743543  0.89645550  0.44873016    -0.60790
N4498       N  0.77945362  0.85158255  0.41572011    -0.06400
N4499       N  0.77036706  0.84974219  0.40298018    -0.62050
N4500       N  0.75718859  0.83872591  0.42327147    -0.08310
N4501       N  0.73290815  0.82748663  0.41578548    -0.61060
N4502       N  0.78476198  0.89324749  0.43684487    -0.06040
N4503       N  0.77590999  0.91748955  0.43582375    -0.62130
Mn4504     Mn  0.82370368  0.87343221  0.42441779     1.18440
C4505       C  0.74655500  0.91931661  0.44333570     0.96160
C4506       C  0.74155804  0.83444245  0.40316105     0.96830
N4507       N  0.89768014  0.84363303  0.46270110    -0.08330
N4508       N  0.90899491  0.86358698  0.46965991    -0.64640
N4509       N  0.87325920  0.78584117  0.44907493    -0.07130
N4510       N  0.88117641  0.76138216  0.44973683    -0.65310
N4511       N  0.89658643  0.79839308  0.44198071    -0.07840
N4512       N  0.92093921  0.78268640  0.43751289    -0.64900
N4513       N  0.87600533  0.82982847  0.46998877    -0.06730
N4514       N  0.87272068  0.83991772  0.48200308    -0.65590
Mn4515     Mn  0.89517283  0.84032099  0.44071977     1.10660
C4516       C  0.89345247  0.86088571  0.48178561     0.97380
C4517       C  0.91084025  0.75961441  0.44237278     0.97460
N4518       N  0.76375206  0.79731939  0.44544749    -0.07850
N4519       N  0.73859216  0.78192001  0.44133329    -0.63220
N4520       N  0.79871770  0.82860017  0.47227255    -0.07160
N4521       N  0.79723511  0.82262979  0.48495101    -0.59950
N4522       N  0.76778819  0.83537342  0.46759709    -0.08470
N4523       N  0.74387679  0.83066547  0.47699806    -0.62790
N4524       N  0.78959978  0.78462222  0.45119060    -0.07460
N4525       N  0.78204515  0.75983563  0.45113173    -0.59970
Mn4526     Mn  0.76162142  0.83839127  0.44532905     1.20190
Mn4527     Mn  0.83457822  0.80650399  0.46059682     1.10090
Cl4528     Cl  0.82847948  0.83976364  0.44258901    -0.87940
C4529       C  0.75012859  0.75856800  0.44483061     0.94390
C4530       C  0.76310626  0.82307914  0.48792569     0.94190
N4531       N  0.00143951  0.96972428  0.53851783    -0.08100
N4532       N  0.52601552  0.97831300  0.53012073    -0.60220
N4533       N  0.97530452  0.51842388  0.55423001    -0.07780
N4534       N  0.98313072  0.54312193  0.55369171    -0.62340
N4535       N  0.00006552  0.50627590  0.56094514    -0.07370
N4536       N  0.52477618  0.52198651  0.56509144    -0.60190
N4537       N  0.97053277  0.97393597  0.53304618    -0.07050
N4538       N  0.97346862  0.98120750  0.52059270    -0.62700
C4539       C  0.50776580  0.98493616  0.51878786     0.94080
C4540       C  0.01400684  0.54493943  0.56063640     0.93860
N4541       N  0.86714938  0.50375703  0.56072834    -0.08280
N4542       N  0.84222799  0.51934560  0.56487059    -0.60790
N4543       N  0.89337255  0.97262058  0.53316203    -0.06400
N4544       N  0.89822974  0.96284728  0.52113774    -0.62050
N4545       N  0.87048872  0.95884645  0.53986847    -0.08310
N4546       N  0.85967178  0.93929761  0.53252509    -0.61060
N4547       N  0.89144978  0.51654701  0.55423346    -0.06040
N4548       N  0.88366906  0.54106176  0.55367912    -0.62130
Mn4549     Mn  0.93254546  0.49607090  0.54371734     1.18440
C4550       C  0.85298621  0.54260815  0.56045275     0.96160
C4551       C  0.87694400  0.94215360  0.52076143     0.96830
N4552       N  0.50541665  0.96363352  0.58312832    -0.08330
N4553       N  0.53111823  0.97170440  0.59105412    -0.64640
N4554       N  0.98024254  0.91036677  0.56859489    -0.07130
N4555       N  0.98888471  0.88603724  0.56940218    -0.65310
N4556       N  0.50361064  0.92308473  0.56137836    -0.07840
N4557       N  0.52868069  0.90754177  0.55729780    -0.64900
N4558       N  0.98122026  0.95154133  0.59016796    -0.06730
N4559       N  0.99000913  0.95130632  0.60300906    -0.65590
Mn4560     Mn  0.50362308  0.96539515  0.56092402     1.10660
C4561       C  0.52109438  0.96410214  0.60344407     0.97380
C4562       C  0.51896808  0.88446065  0.56227247     0.97460
N4563       N  0.87157707  0.92051483  0.56305855    -0.07850
N4564       N  0.84684240  0.90485162  0.55883463    -0.63220
N4565       N  0.89664102  0.95120751  0.59054547    -0.07160
N4566       N  0.88965511  0.95217816  0.60348078    -0.59950
N4567       N  0.87156391  0.96270573  0.58363621    -0.08470
N4568       N  0.84708593  0.97150654  0.59163443    -0.62790
N4569       N  0.89602756  0.90817578  0.56980109    -0.07460
N4570       N  0.88794043  0.88356499  0.57041971    -0.59970
Mn4571     Mn  0.86922033  0.96170466  0.56182059     1.20190
Mn4572     Mn  0.93856992  0.92972508  0.58016556     1.10090
Cl4573     Cl  0.93624765  0.96327997  0.56197499    -0.87940
C4574       C  0.85727778  0.88187216  0.56338553     0.94390
C4575       C  0.85877080  0.96504553  0.60395014     0.94190
N4576       N  0.75142795  0.71877011  0.53887455    -0.08100
N4577       N  0.77644151  0.72662021  0.53049136    -0.60220
N4578       N  0.72606420  0.76809635  0.55430979    -0.07780
N4579       N  0.73409265  0.79272818  0.55363402    -0.62340
N4580       N  0.75067164  0.75592974  0.56109709    -0.07370
N4581       N  0.77547654  0.77162632  0.56520051    -0.60190
N4582       N  0.72073439  0.72353015  0.53334022    -0.07050
N4583       N  0.72412967  0.73061473  0.52087595    -0.62700
C4584       C  0.75861975  0.73356727  0.51913241     0.94080
C4585       C  0.76487772  0.79454251  0.56061137     0.93860
N4586       N  0.61804061  0.75447342  0.56109889    -0.08280
N4587       N  0.59328155  0.77024797  0.56516575    -0.60790
N4588       N  0.64323215  0.72293325  0.53360494    -0.06400
N4589       N  0.64757056  0.71303879  0.52159131    -0.62050
N4590       N  0.62012133  0.70953294  0.54040158    -0.08310
N4591       N  0.60859173  0.69011437  0.53313802    -0.61060
N4592       N  0.64235223  0.76700040  0.55447277    -0.06040
N4593       N  0.63472916  0.79153394  0.55375615    -0.62130
Mn4594     Mn  0.68299653  0.74604028  0.54396089     1.18440
C4595       C  0.60414220  0.79335208  0.56057375     0.96160
C4596       C  0.62569026  0.69267353  0.52133228     0.96830
N4597       N  0.75551992  0.71345818  0.58338844    -0.08330
N4598       N  0.78122533  0.72164239  0.59127146    -0.64640
N4599       N  0.72973404  0.66005295  0.56899209    -0.07130
N4600       N  0.73814682  0.63566507  0.56979926    -0.65310
N4601       N  0.75323054  0.67264239  0.56178043    -0.07840
N4602       N  0.77812113  0.65697363  0.55768587    -0.64900
N4603       N  0.73131115  0.70147922  0.59046817    -0.06730
N4604       N  0.74007526  0.70145416  0.60330999    -0.65590
Mn4605     Mn  0.75368235  0.71493350  0.56122920     1.10660
C4606       C  0.77117532  0.71424171  0.60368550     0.97380
C4607       C  0.76821242  0.63393923  0.56265681     0.97460
N4608       N  0.62086053  0.67124741  0.56361749    -0.07850
N4609       N  0.59563621  0.65586040  0.55953075    -0.63220
N4610       N  0.64691832  0.70175359  0.59093052    -0.07160
N4611       N  0.63994347  0.70269225  0.60386349    -0.59950
N4612       N  0.62207760  0.71356699  0.58405050    -0.08470
N4613       N  0.59777325  0.72255544  0.59205514    -0.62790
N4614       N  0.64529984  0.65863906  0.57023112    -0.07460
N4615       N  0.63675663  0.63410348  0.57085329    -0.59970
Mn4616     Mn  0.61934682  0.71246409  0.56230012     1.20190
Mn4617     Mn  0.68835147  0.67984156  0.58053608     1.10090
Cl4618     Cl  0.68635298  0.71334779  0.56230069    -0.87940
C4619       C  0.60575688  0.63275444  0.56400531     0.94390
C4620       C  0.60932392  0.71587746  0.60434917     0.94190
N4621       N  0.87475218  0.71938107  0.67154469    -0.08100
N4622       N  0.84879622  0.72639189  0.66345684    -0.60220
N4623       N  0.90033849  0.66699696  0.68684079    -0.07780
N4624       N  0.89256638  0.64248006  0.68644722    -0.62340
N4625       N  0.87654804  0.67954037  0.69382962    -0.07370
N4626       N  0.85196209  0.66359878  0.69813486    -0.60190
N4627       N  0.89928714  0.70740564  0.66475412    -0.07050
N4628       N  0.89049739  0.70619960  0.65194064    -0.62700
C4629       C  0.85907009  0.71828483  0.65123906     0.94080
C4630       C  0.86253110  0.64054097  0.69355448     0.93860
N4631       N  0.50859303  0.67702374  0.69200745    -0.08280
N4632       N  0.53439698  0.66170142  0.69555118    -0.60790
N4633       N  0.98385550  0.70754466  0.66449001    -0.06400
N4634       N  0.99154838  0.70739305  0.65162002    -0.62050
N4635       N  0.50907033  0.71910059  0.67130565    -0.08310
N4636       N  0.53441646  0.72681032  0.66328625    -0.61060
N4637       N  0.98414217  0.66464232  0.68532006    -0.06040
N4638       N  0.99317016  0.64035777  0.68408337    -0.62130
Mn4639     Mn  0.94175338  0.68619390  0.67502538     1.18440
C4640       C  0.52451646  0.63886174  0.69066305     0.96160
C4641       C  0.52298571  0.71966220  0.65105588     0.96830
N4642       N  0.87614253  0.72717832  0.71616566    -0.08330
N4643       N  0.84973143  0.73192658  0.72457696    -0.64640
N4644       N  0.90524727  0.77571278  0.69928774    -0.07130
N4645       N  0.89824776  0.80047438  0.69921414    -0.65310
N4646       N  0.88005350  0.76326089  0.69292671    -0.07840
N4647       N  0.85592883  0.77898700  0.68833426    -0.64900
N4648       N  0.90556950  0.73521234  0.72169468    -0.06730
N4649       N  0.90059462  0.74307924  0.73393567    -0.65590
Mn4650     Mn  0.87580602  0.72198114  0.69371335     1.10660
C4651       C  0.86597794  0.74111722  0.73583900     0.97380
C4652       C  0.86752075  0.80214471  0.69220104     0.97460
N4653       N  0.51318213  0.76002123  0.69404020    -0.07850
N4654       N  0.53885173  0.77543144  0.69013101    -0.63220
N4655       N  0.98320353  0.72878230  0.72157717    -0.07160
N4656       N  0.97403864  0.71687527  0.73276444    -0.59950
N4657       N  0.50633229  0.71502046  0.71502616    -0.08470
N4658       N  0.51269587  0.69355514  0.72163646    -0.62790
N4659       N  0.98874773  0.77294361  0.70020664    -0.07460
N4660       N  0.99704716  0.79735767  0.70073172    -0.59970
Mn4661     Mn  0.51029346  0.71821924  0.69316316     1.20190
Mn4662     Mn  0.94628469  0.75377188  0.71064169     1.10090
Cl4663     Cl  0.94315864  0.72003672  0.69290594    -0.87940
C4664       C  0.52824672  0.79872473  0.69433724     0.94390
C4665       C  0.49252727  0.69493101  0.73271648     0.94190
N4666       N  0.63672197  0.59895729  0.83308530    -0.08100
N4667       N  0.66201908  0.60809615  0.84075565    -0.60220
N4668       N  0.61075121  0.54362153  0.82045729    -0.07780
N4669       N  0.62004718  0.51939254  0.82202945    -0.62340
N4670       N  0.63451692  0.55569185  0.81328523    -0.07370
N4671       N  0.65999820  0.54025263  0.80975056    -0.60190
N4672       N  0.61201096  0.58792172  0.84035257    -0.07050
N4673       N  0.62000252  0.58957473  0.85319147    -0.62700
C4674       C  0.65109772  0.60235843  0.85323993     0.94080
C4675       C  0.65077787  0.51764400  0.81514719     0.93860
N4676       N  0.50243985  0.55857270  0.81259243    -0.08280
N4677       N  0.97758543  0.54276060  0.80841436    -0.60790
N4678       N  0.52745119  0.58790729  0.84094361    -0.06400
N4679       N  0.51930240  0.58757572  0.85382636    -0.62050
N4680       N  0.50285323  0.59983379  0.83401971    -0.08310
N4681       N  0.97755408  0.60769269  0.84204740    -0.61060
N4682       N  0.52635517  0.54603691  0.81965643    -0.06040
N4683       N  0.51827282  0.52153792  0.82028776    -0.62130
Mn4684     Mn  0.56903060  0.56585379  0.83069665     1.18440
C4685       C  0.98793747  0.51971857  0.81319718     0.96160
C4686       C  0.98820167  0.60017340  0.85439804     0.96830
N4687       N  0.63105336  0.59246535  0.78945913    -0.08330
N4688       N  0.63772665  0.57100480  0.78301816    -0.64640
N4689       N  0.61527425  0.65139153  0.80328420    -0.07130
N4690       N  0.62370535  0.67583491  0.80266559    -0.65310
N4691       N  0.63973334  0.63845524  0.80960251    -0.07840
N4692       N  0.66541822  0.65381234  0.81354459    -0.64900
N4693       N  0.60753787  0.60594192  0.78278367    -0.06730
N4694       N  0.59832093  0.59381003  0.77167768    -0.65590
Mn4695     Mn  0.63650501  0.59674282  0.81128282     1.10660
C4696       C  0.61734922  0.57206069  0.77188611     0.97380
C4697       C  0.65499043  0.67712248  0.80917715     0.97460
N4698       N  0.50676973  0.64216839  0.81162630    -0.07850
N4699       N  0.98304962  0.65804419  0.81619775    -0.63220
N4700       N  0.52982784  0.61228341  0.78341849    -0.07160
N4701       N  0.52376182  0.61820374  0.77090520    -0.59950
N4702       N  0.50123655  0.60400234  0.78938433    -0.08470
N4703       N  0.97415859  0.60643142  0.78091790    -0.62790
N4704       N  0.53129248  0.65437580  0.80479521    -0.07460
N4705       N  0.52412215  0.67914453  0.80451297    -0.59970
Mn4706     Mn  0.50239529  0.60084366  0.81184853     1.20190
Mn4707     Mn  0.57152770  0.63173837  0.79353962     1.10090
Cl4708     Cl  0.56971847  0.59884840  0.81197337    -0.87940
C4709       C  0.99405300  0.68105314  0.81181811     0.94390
C4710       C  0.48922905  0.61458621  0.76924157     0.94190
N4711       N  0.62473739  0.96912907  0.67137450    -0.08100
N4712       N  0.59868018  0.97597427  0.66329071    -0.60220
N4713       N  0.65069195  0.91676113  0.68667219    -0.07780
N4714       N  0.64310331  0.89221042  0.68629188    -0.62340
N4715       N  0.62680134  0.92922551  0.69363725    -0.07370
N4716       N  0.60233127  0.91321802  0.69795419    -0.60190
N4717       N  0.64934510  0.95723568  0.66459207    -0.07050
N4718       N  0.64052694  0.95593250  0.65178156    -0.62700
C4719       C  0.60898217  0.96786477  0.65107467     0.94080
C4720       C  0.61306819  0.89019199  0.69339652     0.93860
N4721       N  0.75890459  0.92721919  0.69184489    -0.08280
N4722       N  0.78479298  0.91197160  0.69538764    -0.60790
N4723       N  0.73388367  0.95770880  0.66436532    -0.06400
N4724       N  0.74154964  0.95744161  0.65149488    -0.62050
N4725       N  0.75910592  0.96933583  0.67114948    -0.08310
N4726       N  0.78445220  0.97695248  0.66309061    -0.61060
N4727       N  0.73449260  0.91476910  0.68517169    -0.06040
N4728       N  0.74365413  0.89051231  0.68393276    -0.62130
Mn4729     Mn  0.69192013  0.93619847  0.67490427     1.18440
C4730       C  0.77502310  0.88910708  0.69050397     0.96160
C4731       C  0.77298419  0.96969402  0.65087311     0.96830
N4732       N  0.62598458  0.97656273  0.71599865    -0.08330
N4733       N  0.59945145  0.98089652  0.72441272    -0.64640
N4734       N  0.65478665  0.52542141  0.69928626    -0.07130
N4735       N  0.64756973  0.55014521  0.69929704    -0.65310
N4736       N  0.62973179  0.51293218  0.69286144    -0.07840
N4737       N  0.60546603  0.52861001  0.68832445    -0.64900
N4738       N  0.65525139  0.98474467  0.72159148    -0.06730
N4739       N  0.65007122  0.99234066  0.73386777    -0.65590
Mn4740     Mn  0.62581338  0.97160600  0.69353714     1.10660
C4741       C  0.61547323  0.99001729  0.73573376     0.97380
C4742       C  0.61684597  0.55176919  0.69228308     0.97460
N4743       N  0.76285678  0.51023708  0.69404160    -0.07850
N4744       N  0.78843907  0.52576645  0.69018137    -0.63220
N4745       N  0.73302166  0.97865663  0.72152155    -0.07160
N4746       N  0.72388099  0.96663801  0.73267910    -0.59950
N4747       N  0.75624893  0.96500869  0.71494454    -0.08470
N4748       N  0.76267651  0.94350122  0.72151748    -0.62790
N4749       N  0.73837842  0.52302159  0.70027334    -0.07460
N4750       N  0.74658248  0.54745367  0.70088459    -0.59970
Mn4751     Mn  0.76034398  0.96840038  0.69304896     1.20190
Mn4752     Mn  0.69593380  0.00360275  0.71064442     1.10090
Cl4753     Cl  0.69333784  0.97000587  0.69289588    -0.87940
C4754       C  0.77775873  0.54898041  0.69447843     0.94390
C4755       C  0.74245838  0.94473679  0.73259422     0.94190
N4756       N  0.88657771  0.84886208  0.83332924    -0.08100
N4757       N  0.91164071  0.85806445  0.84109136    -0.60220
N4758       N  0.86149061  0.79374712  0.82018387    -0.07780
N4759       N  0.87089088  0.76948924  0.82143613    -0.62340
N4760       N  0.88512893  0.80618948  0.81312427    -0.07370
N4761       N  0.91064535  0.79096843  0.80935104    -0.60190
N4762       N  0.86201653  0.83740841  0.84049659    -0.07050
N4763       N  0.86989133  0.83882274  0.85335760    -0.62700
C4764       C  0.90075296  0.85190768  0.85352855     0.94080
C4765       C  0.90154061  0.76810573  0.81448166     0.93860
N4766       N  0.75307556  0.80794936  0.81232441    -0.08280
N4767       N  0.72855856  0.79204874  0.80796219    -0.60790
N4768       N  0.77731148  0.83671116  0.84096769    -0.06400
N4769       N  0.76920801  0.83620867  0.85385667    -0.62050
N4770       N  0.75256135  0.84858819  0.83408637    -0.08310
N4771       N  0.72723401  0.85624736  0.84215366    -0.61060
N4772       N  0.77709107  0.79541683  0.81934813    -0.06040
N4773       N  0.76938959  0.77083140  0.81976198    -0.62130
Mn4774     Mn  0.81940360  0.81526502  0.83062428     1.18440
C4775       C  0.73919811  0.76896046  0.81258174     0.96160
C4776       C  0.73798054  0.84864210  0.85447823     0.96830
N4777       N  0.88132545  0.84365595  0.78964794    -0.08330
N4778       N  0.88835212  0.82239877  0.78308460    -0.64640
N4779       N  0.86442308  0.90198781  0.80396796    -0.07130
N4780       N  0.87246370  0.92651021  0.80352192    -0.65310
N4781       N  0.88906994  0.88909047  0.81019074    -0.07840
N4782       N  0.91451228  0.90454931  0.81424500    -0.64900
N4783       N  0.85755557  0.85704620  0.78306540    -0.06730
N4784       N  0.84847692  0.84503269  0.77190270    -0.65590
Mn4785     Mn  0.88647817  0.84732339  0.81149287     1.10660
C4786       C  0.86789281  0.82345791  0.77197806     0.97380
C4787       C  0.90371416  0.92788508  0.81004851     0.97460
N4788       N  0.75590356  0.89161911  0.81203608    -0.07850
N4789       N  0.73201584  0.90724961  0.81673424    -0.63220
N4790       N  0.77986927  0.86283741  0.78365624    -0.07160
N4791       N  0.77404069  0.86889722  0.77114606    -0.59950
N4792       N  0.75135252  0.85399626  0.78944818    -0.08470
N4793       N  0.72447904  0.85609984  0.78085911    -0.62790
N4794       N  0.78050816  0.90417344  0.80542255    -0.07460
N4795       N  0.77327301  0.92891836  0.80542621    -0.59970
Mn4796     Mn  0.75220950  0.85023347  0.81189677     1.20190
Mn4797     Mn  0.82114460  0.88223180  0.79403021     1.10090
Cl4798     Cl  0.81948080  0.84878091  0.81225086    -0.87940
C4799       C  0.74305722  0.93046346  0.81266219     0.94390
C4800       C  0.73970206  0.86469826  0.76929276     0.94190
C4801       C  0.71507112  0.92496625  0.75319674    -0.15320
C4802       C  0.73390873  0.92225266  0.74118839     0.06830
C4803       C  0.74374333  0.89759181  0.73722934    -0.15320
C4804       C  0.73801952  0.87657356  0.74567568    -0.15320
C4805       C  0.72328050  0.87974394  0.75845593     0.06830
C4806       C  0.70985984  0.90390158  0.76176777    -0.15320
H4807       H  0.70639017  0.94365095  0.75637420     0.10810
H4808       H  0.75734398  0.89465963  0.72785709     0.10810
H4809       H  0.74943189  0.85838517  0.74296011     0.10810
H4810       H  0.69940037  0.90720683  0.77167671     0.10810
C4811       C  0.61963188  0.52493588  0.76746731    -0.15320
C4812       C  0.60972924  0.54952247  0.76322734     0.06830
C4813       C  0.59205713  0.55204172  0.75086180    -0.15320
C4814       C  0.58768008  0.53082467  0.74237250    -0.15320
C4815       C  0.60042980  0.00661205  0.74616927     0.06830
C4816       C  0.61471267  0.00379168  0.75911638    -0.15320
H4817       H  0.63254030  0.52213584  0.77705546     0.10810
H4818       H  0.58357466  0.57067639  0.74739760     0.10810
H4819       H  0.57788465  0.53393274  0.73229434     0.10810
H4820       H  0.62585241  0.98563997  0.76218750     0.10810
C4821       C  0.97867024  0.97328067  0.81808424    -0.15320
C4822       C  0.96665049  0.99613390  0.81224284     0.06830
C4823       C  0.93354593  0.49647891  0.80592394    -0.15320
C4824       C  0.91286784  0.97437365  0.80541252    -0.15320
C4825       C  0.92495716  0.95147686  0.81117430     0.06830
C4826       C  0.95800812  0.95114462  0.81754814    -0.15320
H4827       H  0.50401515  0.97250377  0.82308475     0.10810
H4828       H  0.92352996  0.51386623  0.80141156     0.10810
H4829       H  0.88752589  0.97517775  0.80041626     0.10810
H4830       H  0.96799640  0.93374514  0.82205807     0.10810
C4831       C  0.70950051  0.70023759  0.81662647    -0.15320
C4832       C  0.67645815  0.70062631  0.81024002     0.06830
C4833       C  0.66446595  0.72354401  0.80447720    -0.15320
C4834       C  0.68513313  0.74564324  0.80505720    -0.15320
C4835       C  0.71814834  0.74528572  0.81144478     0.06830
C4836       C  0.73016610  0.72237771  0.81722902    -0.15320
H4837       H  0.71942947  0.68281279  0.82112902     0.10810
H4838       H  0.63914926  0.72439332  0.79946501     0.10810
H4839       H  0.67512471  0.76306033  0.80057526     0.10810
H4840       H  0.75545386  0.72158418  0.82227125     0.10810
C4841       C  0.66599579  0.97264155  0.82160869    -0.15320
C4842       C  0.67442098  0.99530279  0.81483365     0.06830
C4843       C  0.70666723  0.49700316  0.80793539    -0.15320
C4844       C  0.72972662  0.97629156  0.80758267    -0.15320
C4845       C  0.72095426  0.95343748  0.81410052     0.06830
C4846       C  0.68907177  0.95190678  0.82125158    -0.15320
H4847       H  0.64157932  0.97089542  0.82709936     0.10810
H4848       H  0.71405871  0.51435175  0.80268849     0.10810
H4849       H  0.75397223  0.97798274  0.80197970     0.10810
H4850       H  0.68159630  0.93447029  0.82640289     0.10810
C4851       C  0.97998803  0.72664645  0.80620167    -0.15320
C4852       C  0.97194222  0.70406243  0.81311622     0.06830
C4853       C  0.94062276  0.70272626  0.82061965    -0.15320
C4854       C  0.91744294  0.72336134  0.82099652    -0.15320
C4855       C  0.92518468  0.74579522  0.81391428     0.06830
C4856       C  0.95680382  0.74732079  0.80659647    -0.15320
H4857       H  0.50375880  0.72815664  0.80030060     0.10810
H4858       H  0.93368038  0.68551529  0.82607796     0.10810
H4859       H  0.89353675  0.72175302  0.82681108     0.10810
H4860       H  0.96360027  0.76450287  0.80108718     0.10810
C4861       C  0.86594553  0.75521050  0.75917440    -0.15320
C4862       C  0.85128755  0.75789327  0.74627989     0.06830
C4863       C  0.83824968  0.78203636  0.74249636    -0.15320
C4864       C  0.84253653  0.80330174  0.75097091    -0.15320
C4865       C  0.86047511  0.80091149  0.76329138     0.06830
C4866       C  0.87081092  0.77639657  0.76749493    -0.15320
H4867       H  0.87733123  0.73712894  0.76222917     0.10810
H4868       H  0.82817836  0.78505150  0.73245025     0.10810
H4869       H  0.83373010  0.82187461  0.74753411     0.10810
H4870       H  0.88395795  0.77367837  0.77704305     0.10810
C4871       C  0.58371071  0.82185838  0.68822443    -0.15320
C4872       C  0.54984923  0.82215129  0.69377674     0.06830
C4873       C  0.53720526  0.84483492  0.69944697    -0.15320
C4874       C  0.55806834  0.86682743  0.69960591    -0.15320
C4875       C  0.59189660  0.86657324  0.69404705     0.06830
C4876       C  0.60457292  0.84389781  0.68835713    -0.15320
H4877       H  0.59414208  0.80459139  0.68385091     0.10810
H4878       H  0.51121834  0.84557962  0.70383723     0.10810
H4879       H  0.54755996  0.88408552  0.70395697     0.10810
H4880       H  0.63053434  0.84321895  0.68393555     0.10810
C4881       C  0.85384238  0.59432033  0.68841156    -0.15320
C4882       C  0.84128964  0.61693625  0.69420559     0.06830
C4883       C  0.80758611  0.61710742  0.69987954    -0.15320
C4884       C  0.78674385  0.59508197  0.69973441    -0.15320
C4885       C  0.79928384  0.57246425  0.69395265     0.06830
C4886       C  0.83301046  0.57227170  0.68828498    -0.15320
H4887       H  0.87969730  0.59368998  0.68389956     0.10810
H4888       H  0.79717557  0.63431661  0.70431629     0.10810
H4889       H  0.76086197  0.59574613  0.70421665     0.10810
H4890       H  0.84336898  0.55506821  0.68381967     0.10810
C4891       C  0.81315988  0.82380157  0.68395821    -0.15320
C4892       C  0.84537618  0.82512320  0.69098924     0.06830
C4893       C  0.85435815  0.84766399  0.69768627    -0.15320
C4894       C  0.83118264  0.86831877  0.69758680    -0.15320
C4895       C  0.79865951  0.86681522  0.69077404     0.06830
C4896       C  0.78997819  0.84444534  0.68386764    -0.15320
H4897       H  0.80552764  0.80660021  0.67868925     0.10810
H4898       H  0.87885442  0.84913696  0.70323040     0.10810
H4899       H  0.83869437  0.88545413  0.70293429     0.10810
H4900       H  0.76533161  0.84288680  0.67842787     0.10810
C4901       C  0.58082227  0.61807046  0.69755703    -0.15320
C4902       C  0.54804238  0.61650352  0.69093121     0.06830
C4903       C  0.53898471  0.59399265  0.68421709    -0.15320
C4904       C  0.56207885  0.57329028  0.68430324    -0.15320
C4905       C  0.59458779  0.57470413  0.69113171     0.06830
C4906       C  0.60390704  0.59736710  0.69764866    -0.15320
H4907       H  0.58863273  0.63530741  0.70275249     0.10810
H4908       H  0.51411533  0.59237085  0.67893177     0.10810
H4909       H  0.55417151  0.55598954  0.67918262     0.10810
H4910       H  0.62864386  0.59892289  0.70302899     0.10810
C4911       C  0.49306845  0.64777635  0.73725050    -0.15320
C4912       C  0.48382784  0.67249884  0.74131020     0.06830
C4913       C  0.96542839  0.67531709  0.75340639    -0.15320
C4914       C  0.96008523  0.65423819  0.76195360    -0.15320
C4915       C  0.47290639  0.62997019  0.75851801     0.06830
C4916       C  0.48718752  0.62675064  0.74566823    -0.15320
H4917       H  0.50631137  0.64478089  0.72780917     0.10810
H4918       H  0.95722021  0.69406667  0.75666102     0.10810
H4919       H  0.95000457  0.65756544  0.77191742     0.10810
H4920       H  0.49813688  0.60846552  0.74285698     0.10810
C4921       C  0.60319399  0.71889028  0.62908513    -0.15320
C4922       C  0.58771993  0.71864060  0.61634194     0.06830
C4923       C  0.55089137  0.71990776  0.61503474    -0.15320
C4924       C  0.52968129  0.72056957  0.62635992    -0.15320
C4925       C  0.54510560  0.72072318  0.63910644     0.06830
C4926       C  0.58198392  0.72030407  0.64041812    -0.15320
H4927       H  0.63153033  0.71789674  0.63026065     0.10810
H4928       H  0.53841157  0.71953133  0.60526032     0.10810
H4929       H  0.50131149  0.72081114  0.62517566     0.10810
H4930       H  0.59435913  0.72016424  0.65021171     0.10810
C4931       C  0.77831333  0.71722433  0.62864538    -0.15320
C4932       C  0.79348101  0.71693531  0.61584710     0.06830
C4933       C  0.83037823  0.71816449  0.61476756    -0.15320
C4934       C  0.85171612  0.71880508  0.62626304    -0.15320
C4935       C  0.83655708  0.71906915  0.63906009     0.06830
C4936       C  0.79963034  0.71868739  0.64013258    -0.15320
H4937       H  0.74998180  0.71629025  0.62976026     0.10810
H4938       H  0.84279481  0.71780713  0.60503095     0.10810
H4939       H  0.88007675  0.71903928  0.62515716     0.10810
H4940       H  0.78725096  0.71866391  0.64987903     0.10810
C4941       C  0.85295523  0.96871434  0.62870711    -0.15320
C4942       C  0.83730070  0.96796667  0.61599348     0.06830
C4943       C  0.80044208  0.96901482  0.61477365    -0.15320
C4944       C  0.77940682  0.96995593  0.62614746    -0.15320
C4945       C  0.79499975  0.97060116  0.63886668     0.06830
C4946       C  0.83190594  0.97040124  0.64008658    -0.15320
H4947       H  0.88131828  0.96791547  0.62982541     0.10810
H4948       H  0.78780995  0.96827012  0.60503408     0.10810
H4949       H  0.75101895  0.97001053  0.62502037     0.10810
H4950       H  0.84443525  0.97063638  0.64985077     0.10810
C4951       C  0.52822673  0.96664444  0.62843812    -0.15320
C4952       C  0.54339983  0.96660808  0.61563468     0.06830
C4953       C  0.58029934  0.96793648  0.61457702    -0.15320
C4954       C  0.60162124  0.96849130  0.62608482    -0.15320
C4955       C  0.58645507  0.96857150  0.63888397     0.06830
C4956       C  0.54952343  0.96802480  0.63994066    -0.15320
H4957       H  0.99989879  0.96561152  0.62954545     0.10810
H4958       H  0.59273601  0.96775819  0.60484278     0.10810
H4959       H  0.62998115  0.96884663  0.62498507     0.10810
H4960       H  0.53712730  0.96784819  0.64968459     0.10810
C4961       C  0.52936094  0.83858538  0.56797782    -0.15320
C4962       C  0.54077902  0.86117268  0.56166900     0.06830
C4963       C  0.57366491  0.86149737  0.55529044    -0.15320
C4964       C  0.59461803  0.83957540  0.55514990    -0.15320
C4965       C  0.58302002  0.81693588  0.56137229     0.06830
C4966       C  0.55027362  0.81669769  0.56783347    -0.15320
H4967       H  0.50423984  0.83780779  0.57304798     0.10810
H4968       H  0.58323904  0.87869747  0.55043216     0.10810
H4969       H  0.61973213  0.84029088  0.55006963     0.10810
H4970       H  0.54063917  0.79951650  0.57269283     0.10810
C4971       C  0.79895616  0.56583839  0.56777481    -0.15320
C4972       C  0.83184990  0.56618120  0.56141334     0.06830
C4973       C  0.84369766  0.58899033  0.55543682    -0.15320
C4974       C  0.82287070  0.61095784  0.55570173    -0.15320
C4975       C  0.78984264  0.61055320  0.56197331     0.06830
C4976       C  0.77815864  0.58780691  0.56805547    -0.15320
H4977       H  0.78913290  0.54852537  0.57244633     0.10810
H4978       H  0.86893044  0.58981303  0.55044516     0.10810
H4979       H  0.83267274  0.62826890  0.55102059     0.10810
H4980       H  0.75291739  0.58696774  0.57303645     0.10810
C4981       C  0.52753822  0.59080692  0.55540933    -0.15320
C4982       C  0.53663168  0.56783189  0.56172528     0.06830
C4983       C  0.56901814  0.56618219  0.56864589    -0.15320
C4984       C  0.59192918  0.58706648  0.56921943    -0.15320
C4985       C  0.58284375  0.61004090  0.56291596     0.06830
C4986       C  0.55046281  0.61172959  0.55599896    -0.15320
H4987       H  0.50296414  0.59253202  0.54994180     0.10810
H4988       H  0.57685220  0.54862673  0.57359094     0.10810
H4989       H  0.61654132  0.58529079  0.57466379     0.10810
H4990       H  0.54271810  0.62930443  0.55105336     0.10810
C4991       C  0.80486416  0.85950223  0.55386465    -0.15320
C4992       C  0.83465405  0.85904360  0.56232933     0.06830
C4993       C  0.84080550  0.83753261  0.57035943    -0.15320
C4994       C  0.81743295  0.81689586  0.56998818    -0.15320
C4995       C  0.78757877  0.81736751  0.56155532     0.06830
C4996       C  0.78148838  0.83884428  0.55348582    -0.15320
H4997       H  0.79951271  0.87592980  0.54754838     0.10810
H4998       H  0.86329688  0.83681859  0.57705858     0.10810
H4999       H  0.82282767  0.80047631  0.57630431     0.10810
H5000       H  0.75902524  0.83952689  0.54677503     0.10810
C5001       C  0.74405175  0.77890197  0.49116544    -0.15320
C5002       C  0.75320624  0.80229774  0.49706937     0.06830
C5003       C  0.76918973  0.80193032  0.50982718    -0.15320
C5004       C  0.77601548  0.77878658  0.51645892    -0.15320
C5005       C  0.76729014  0.75538987  0.51043663     0.06830
C5006       C  0.75138277  0.75581774  0.49767935    -0.15320
H5007       H  0.73356910  0.77838134  0.48105785     0.10810
H5008       H  0.77818537  0.81959009  0.51433523     0.10810
H5009       H  0.78642403  0.77923474  0.52657478     0.10810
H5010       H  0.74277470  0.73815541  0.49306585     0.10810
C5011       C  0.90770752  0.90513701  0.49022510    -0.15320
C5012       C  0.89066647  0.88148365  0.49196871     0.06830
C5013       C  0.86824525  0.87829498  0.50305862    -0.15320
C5014       C  0.86298926  0.89817927  0.51216870    -0.15320
C5015       C  0.88006911  0.92180469  0.51046354     0.06830
C5016       C  0.90254016  0.92503438  0.49938394    -0.15320
H5017       H  0.92480074  0.90834194  0.48172755     0.10810
H5018       H  0.85439125  0.86042270  0.50465403     0.10810
H5019       H  0.84583050  0.89492984  0.52064271     0.10810
H5020       H  0.91637573  0.94292947  0.49783340     0.10810
C5021       C  0.01433491  0.55334382  0.50888565    -0.15320
C5022       C  0.49919604  0.55282951  0.49597220     0.06830
C5023       C  0.49185637  0.52895367  0.49023420    -0.15320
C5024       C  0.50010702  0.50632273  0.49706361    -0.15320
C5025       C  0.51540435  0.50679280  0.50993507     0.06830
C5026       C  0.02224668  0.53065567  0.51579249    -0.15320
H5027       H  0.02194706  0.57141204  0.51331012     0.10810
H5028       H  0.48206704  0.52776267  0.48004594     0.10810
H5029       H  0.49282167  0.98825442  0.49256242     0.10810
H5030       H  0.03203921  0.53177116  0.52598117     0.10810
C5031       C  0.98593330  0.71476366  0.43486049    -0.15320
C5032       C  0.97530600  0.69253235  0.44169013     0.06830
C5033       C  0.94282360  0.69227885  0.44834233    -0.15320
C5034       C  0.92147305  0.71392416  0.44826809    -0.15320
C5035       C  0.93226710  0.73625126  0.44157176     0.06830
C5036       C  0.96458597  0.73644459  0.43480348    -0.15320
H5037       H  0.51073401  0.71541251  0.42956409     0.10810
H5038       H  0.93384928  0.67533142  0.45359477     0.10810
H5039       H  0.89671110  0.71325952  0.45359295     0.10810
H5040       H  0.97356314  0.75343231  0.42958667     0.10810
C5041       C  0.69172620  0.94209695  0.45020764    -0.15320
C5042       C  0.72438374  0.94238594  0.44367630     0.06830
C5043       C  0.73511116  0.96462836  0.43687745    -0.15320
C5044       C  0.71377132  0.98627213  0.43673089    -0.15320
C5045       C  0.68130340  0.98610047  0.44338227     0.06830
C5046       C  0.67033358  0.96377045  0.45004965    -0.15320
H5047       H  0.68267612  0.92512207  0.45541520     0.10810
H5048       H  0.76002714  0.96532989  0.43165938     0.10810
H5049       H  0.72288799  0.50323153  0.43152213     0.10810
H5050       H  0.64543251  0.96313949  0.45527958     0.10810
C5051       C  0.94393973  0.98782299  0.43626863    -0.15320
C5052       C  0.97678655  0.98590340  0.44286235     0.06830
C5053       C  0.98700310  0.96231542  0.44822440    -0.15320
C5054       C  0.96473349  0.94109762  0.44706099    -0.15320
C5055       C  0.93182756  0.94305842  0.44052566     0.06830
C5056       C  0.92165294  0.96662610  0.43512864    -0.15320
H5057       H  0.93525429  0.50582653  0.43203125     0.10810
H5058       H  0.51199139  0.96031090  0.45338258     0.10810
H5059       H  0.97335339  0.92309388  0.45131403     0.10810
H5060       H  0.89661754  0.96865670  0.42999972     0.10810
C5061       C  0.67317766  0.71622432  0.43486177    -0.15320
C5062       C  0.68263530  0.69276440  0.44058100     0.06830
C5063       C  0.71515472  0.69082328  0.44741193    -0.15320
C5064       C  0.73763950  0.71194078  0.44859658    -0.15320
C5065       C  0.72801297  0.73546853  0.44300319     0.06830
C5066       C  0.69563735  0.73734955  0.43606290    -0.15320
H5067       H  0.64849324  0.71825645  0.42949224     0.10810
H5068       H  0.72329073  0.67291229  0.45190709     0.10810
H5069       H  0.76222857  0.70994825  0.45402863     0.10810
H5070       H  0.68743609  0.75529055  0.43161431     0.10810
C5071       C  0.65564796  0.65496885  0.49106333    -0.15320
C5072       C  0.63822327  0.63151491  0.49294298     0.06830
C5073       C  0.61577430  0.62864206  0.50403077    -0.15320
C5074       C  0.61084943  0.64872709  0.51302804    -0.15320
C5075       C  0.62827368  0.67217619  0.51116101     0.06830
C5076       C  0.65075855  0.67505914  0.50007990    -0.15320
H5077       H  0.67277240  0.65789670  0.48254800     0.10810
H5078       H  0.60167768  0.61089339  0.50570187     0.10810
H5079       H  0.59369999  0.64578023  0.52153338     0.10810
H5080       H  0.66484650  0.69281724  0.49842545     0.10810
C5081       C  0.90759721  0.60239729  0.87678378    -0.15320
C5082       C  0.92261464  0.60195577  0.88966326     0.06830
C5083       C  0.95957211  0.60203022  0.89088545    -0.15320
C5084       C  0.98101057  0.60160900  0.87945613    -0.15320
C5085       C  0.96593617  0.60194345  0.86657429     0.06830
C5086       C  0.92901294  0.60279993  0.86537765    -0.15320
H5087       H  0.87924870  0.60234130  0.87553704     0.10810
H5088       H  0.97188888  0.60152358  0.90068617     0.10810
H5089       H  0.50934779  0.60094921  0.88068086     0.10810
H5090       H  0.91660801  0.60292003  0.85558996     0.10810
C5091       C  0.71017838  0.60546965  0.86389019    -0.15320
C5092       C  0.67331324  0.60552619  0.86512219     0.06830
C5093       C  0.65802242  0.60675799  0.87780916    -0.15320
C5094       C  0.67934386  0.60736985  0.88917813    -0.15320
C5095       C  0.71616322  0.60599843  0.88799793     0.06830
C5096       C  0.73152280  0.60532745  0.87529551    -0.15320
H5097       H  0.72244436  0.60437021  0.85414288     0.10810
H5098       H  0.62966046  0.60684036  0.87892535     0.10810
H5099       H  0.66692489  0.60775818  0.89891530     0.10810
H5100       H  0.75984982  0.60427303  0.87421430     0.10810
C5101       C  0.70960772  0.85068978  0.89101761    -0.15320
C5102       C  0.67264251  0.85099731  0.88982741     0.06830
C5103       C  0.65757191  0.85146547  0.87695689    -0.15320
C5104       C  0.67892068  0.85159096  0.86553279    -0.15320
C5105       C  0.71583378  0.85043213  0.86669343     0.06830
C5106       C  0.73097484  0.85000088  0.87956662    -0.15320
H5107       H  0.72196688  0.85013305  0.90080999     0.10810
H5108       H  0.62922077  0.85168082  0.87572991     0.10810
H5109       H  0.66645176  0.85179578  0.85575715     0.10810
H5110       H  0.75930554  0.84911126  0.88076857     0.10810
C5111       C  0.98093326  0.85592441  0.87569583    -0.15320
C5112       C  0.96550743  0.85605031  0.88839443     0.06830
C5113       C  0.92864367  0.85662776  0.88955606    -0.15320
C5114       C  0.90739500  0.85579891  0.87816118    -0.15320
C5115       C  0.92278006  0.85514851  0.86547107     0.06830
C5116       C  0.95964633  0.85586104  0.86427373    -0.15320
H5117       H  0.50929908  0.85547074  0.87462878     0.10810
H5118       H  0.91619495  0.85656079  0.89929139     0.10810
H5119       H  0.87903378  0.85528888  0.87925775     0.10810
H5120       H  0.97200971  0.85522911  0.85453111     0.10810
C5121       C  0.97153617  0.97530571  0.94991193    -0.15320
C5122       C  0.96004414  0.95280532  0.94360845     0.06830
C5123       C  0.92725891  0.95263403  0.93704550    -0.15320
C5124       C  0.90619133  0.97444912  0.93689213    -0.15320
C5125       C  0.91749969  0.49688105  0.94329433     0.06830
C5126       C  0.95043008  0.49714490  0.94976578    -0.15320
H5127       H  0.49667341  0.97596751  0.95506778     0.10810
H5128       H  0.91771012  0.93555739  0.93212034     0.10810
H5129       H  0.88104550  0.97373900  0.93174595     0.10810
H5130       H  0.95992923  0.51423734  0.95469166     0.10810
C5131       C  0.65551206  0.72413403  0.93662000    -0.15320
C5132       C  0.66692271  0.74650694  0.94305403     0.06830
C5133       C  0.69998501  0.74676113  0.94941743    -0.15320
C5134       C  0.72112999  0.72497044  0.94943778    -0.15320
C5135       C  0.70954656  0.70251572  0.94312042     0.06830
C5136       C  0.67663284  0.70234205  0.93665276    -0.15320
H5137       H  0.63025488  0.72345449  0.93155238     0.10810
H5138       H  0.70956470  0.76381339  0.95435934     0.10810
H5139       H  0.74637100  0.72563187  0.95451960     0.10810
H5140       H  0.66702796  0.68528549  0.93172360     0.10810
C5141       C  0.90433351  0.72679300  0.94890700    -0.15320
C5142       C  0.91395823  0.70365898  0.94303207     0.06830
C5143       C  0.94654004  0.70203875  0.93637196    -0.15320
C5144       C  0.96917374  0.72307993  0.93566485    -0.15320
C5145       C  0.95962273  0.74617789  0.94157792     0.06830
C5146       C  0.92697934  0.74786466  0.94818698    -0.15320
H5147       H  0.87956475  0.72852771  0.95414371     0.10810
H5148       H  0.95476703  0.68437845  0.93175775     0.10810
H5149       H  0.49399815  0.72129649  0.93046586     0.10810
H5150       H  0.91884297  0.76553401  0.95281697     0.10810
C5151       C  0.69649132  0.95190048  0.93604417    -0.15320
C5152       C  0.66464082  0.95329882  0.94320978     0.06830
C5153       C  0.65583284  0.97617571  0.94953083    -0.15320
C5154       C  0.67853258  0.49720935  0.94874352    -0.15320
C5155       C  0.71042360  0.49576845  0.94161174     0.06830
C5156       C  0.71918956  0.97291799  0.93526547    -0.15320
H5157       H  0.70406339  0.93444062  0.93107230     0.10810
H5158       H  0.63167667  0.47772851  0.95517903     0.10810
H5159       H  0.67102354  0.51466694  0.95373276     0.10810
H5160       H  0.74339532  0.97133527  0.92964555     0.10810
C5161       C  0.78276508  0.53892768  0.01371963    -0.15320
C5162       C  0.76514793  0.51553250  0.01189330     0.06830
C5163       C  0.74255160  0.51291213  0.00074985    -0.15320
C5164       C  0.73776548  0.53312023  0.99164830    -0.15320
C5165       C  0.75542693  0.55649929  0.99345764     0.06830
C5166       C  0.77798962  0.55913916  0.00461152    -0.15320
H5167       H  0.80003145  0.54170450  0.02225503     0.10810
H5168       H  0.72830038  0.99523817  0.99909617     0.10810
H5169       H  0.72051360  0.53032722  0.98311027     0.10810
H5170       H  0.79225933  0.57680997  0.00625351     0.10810
C5171       C  0.64316289  0.93357410  0.99678844    -0.15320
C5172       C  0.62813872  0.93289392  0.00964928     0.06830
C5173       C  0.62152868  0.90894891  0.01555051    -0.15320
C5174       C  0.62979860  0.88638616  0.00878923    -0.15320
C5175       C  0.64467804  0.88707515  0.99590094     0.06830
C5176       C  0.65149274  0.91102209  0.99004078    -0.15320
H5177       H  0.65029576  0.95171987  0.99226580     0.10810
H5178       H  0.61194033  0.90768004  0.02573354     0.10810
H5179       H  0.62258352  0.86824240  0.01329609     0.10810
H5180       H  0.66105932  0.91230705  0.97985486     0.10810
C5181       C  0.89274366  0.68630521  0.99620456    -0.15320
C5182       C  0.87753482  0.68577925  0.00904009     0.06830
C5183       C  0.86966730  0.66192605  0.01480672    -0.15320
C5184       C  0.87756605  0.63929174  0.00808098    -0.15320
C5185       C  0.89300538  0.63978198  0.99529432     0.06830
C5186       C  0.90038664  0.66363291  0.98942005    -0.15320
H5187       H  0.90071921  0.70434896  0.99177446     0.10810
H5188       H  0.85976924  0.66073177  0.02494987     0.10810
H5189       H  0.86984465  0.62124191  0.01257015     0.10810
H5190       H  0.91029106  0.66476955  0.97927848     0.10810
C5191       C  0.59314532  0.61764325  0.06975163    -0.15320
C5192       C  0.56122836  0.61786817  0.06258527     0.06830
C5193       C  0.55055746  0.59569281  0.05578069    -0.15320
C5194       C  0.57162706  0.57382989  0.05600392    -0.15320
C5195       C  0.60373070  0.57369737  0.06305879     0.06830
C5196       C  0.61418492  0.59577791  0.06998890    -0.15320
H5197       H  0.60203526  0.63444956  0.07508856     0.10810
H5198       H  0.52611783  0.59531814  0.05015099     0.10810
H5199       H  0.56277465  0.55703598  0.05064651     0.10810
H5200       H  0.63865288  0.59617996  0.07559689     0.10810
C5201       C  0.86499770  0.84654449  0.06912929    -0.15320
C5202       C  0.85400790  0.82418576  0.06258375     0.06830
C5203       C  0.82139440  0.82397565  0.05588359    -0.15320
C5204       C  0.80031959  0.84580667  0.05561913    -0.15320
C5205       C  0.81153706  0.86826391  0.06201820     0.06830
C5206       C  0.84396209  0.86838041  0.06884423    -0.15320
H5207       H  0.88988703  0.84719237  0.07445641     0.10810
H5208       H  0.81212909  0.80693338  0.05084994     0.10810
H5209       H  0.77545515  0.84518472  0.05027336     0.10810
H5210       H  0.85326400  0.88543098  0.07386177     0.10810
C5211       C  0.86547426  0.59440588  0.05614202    -0.15320
C5212       C  0.85670652  0.61743551  0.06230516     0.06830
C5213       C  0.82499225  0.61892647  0.06957219    -0.15320
C5214       C  0.80235706  0.59787287  0.07056734    -0.15320
C5215       C  0.81101879  0.57489836  0.06432160     0.06830
C5216       C  0.84283016  0.57336331  0.05712783    -0.15320
H5217       H  0.88951746  0.59275342  0.05043384     0.10810
H5218       H  0.81746302  0.63649814  0.07444682     0.10810
H5219       H  0.77823259  0.59955195  0.07622940     0.10810
H5220       H  0.85031156  0.55582340  0.05221389     0.10810
C5221       C  0.61384308  0.84464443  0.05496390    -0.15320
C5222       C  0.60747936  0.86687317  0.06226956     0.06830
C5223       C  0.57774166  0.86776531  0.07067895    -0.15320
C5224       C  0.55469449  0.84694715  0.07169809    -0.15320
C5225       C  0.56098313  0.82475856  0.06435800     0.06830
C5226       C  0.59079895  0.82380240  0.05599500    -0.15320
H5227       H  0.63622411  0.84351500  0.04832054     0.10810
H5228       H  0.57210080  0.88470381  0.07645544     0.10810
H5229       H  0.53222960  0.84812679  0.07830214     0.10810
H5230       H  0.59635128  0.80687607  0.05019611     0.10810
C5231       C  0.53367706  0.78875799  0.01424716    -0.15320
C5232       C  0.51589422  0.76539499  0.01251295     0.06830
C5233       C  0.99319920  0.76278881  0.00138683    -0.15320
C5234       C  0.98848279  0.78293973  0.99222747    -0.15320
C5235       C  0.50631726  0.80628063  0.99393885     0.06830
C5236       C  0.52899079  0.80891116  0.00507201    -0.15320
H5237       H  0.55103086  0.79154718  0.02275576     0.10810
H5238       H  0.97879663  0.74516023  0.99978934     0.10810
H5239       H  0.97112236  0.78013337  0.98372257     0.10810
H5240       H  0.54340150  0.82654228  0.00665287     0.10810
C5241       C  0.56446390  0.71632299  0.14163062    -0.15320
C5242       C  0.59622228  0.70274465  0.14052119     0.06830
C5243       C  0.60573246  0.69256674  0.12812624    -0.15320
C5244       C  0.58413088  0.69613948  0.11698045    -0.15320
C5245       C  0.55266034  0.71004892  0.11799389     0.06830
C5246       C  0.54279578  0.71995544  0.13042964    -0.15320
H5247       H  0.55645116  0.72424109  0.15113177     0.10810
H5248       H  0.62990330  0.68188538  0.12702189     0.10810
H5249       H  0.59240235  0.68825956  0.10750204     0.10810
H5250       H  0.51874627  0.73081279  0.13144519     0.10810
C5251       C  0.83652083  0.71512114  0.13877073    -0.15320
C5252       C  0.80359294  0.70283444  0.13743547     0.06830
C5253       C  0.79276612  0.69497724  0.12462732    -0.15320
C5254       C  0.81444291  0.69936511  0.11344900    -0.15320
C5255       C  0.84737905  0.71168041  0.11484945     0.06830
C5256       C  0.85808563  0.71945990  0.12765703    -0.15320
H5257       H  0.84584905  0.72138137  0.14848167     0.10810
H5258       H  0.76767745  0.68541784  0.12325653     0.10810
H5259       H  0.80535631  0.69317426  0.10369413     0.10810
H5260       H  0.88317160  0.72898194  0.12910734     0.10810
C5261       C  0.86442159  0.95363176  0.12636284    -0.15320
C5262       C  0.84967633  0.95208335  0.13913280     0.06830
C5263       C  0.81293310  0.95379485  0.14064552    -0.15320
C5264       C  0.79128412  0.95789187  0.12948688    -0.15320
C5265       C  0.80618297  0.95957355  0.11671651     0.06830
C5266       C  0.84279865  0.95700073  0.11522236    -0.15320
H5267       H  0.89265684  0.95243313  0.12501911     0.10810
H5268       H  0.80111017  0.95288951  0.15048500     0.10810
H5269       H  0.76312249  0.95978170  0.13081532     0.10810
H5270       H  0.85492271  0.95836464  0.10544895     0.10810
C5271       C  0.59647232  0.95294732  0.13942779    -0.15320
C5272       C  0.55957683  0.95162423  0.13823899     0.06830
C5273       C  0.54416541  0.95383502  0.12548366    -0.15320
C5274       C  0.56520564  0.95739742  0.11413887    -0.15320
C5275       C  0.60200734  0.95967270  0.11536679     0.06830
C5276       C  0.61746945  0.95733720  0.12811669    -0.15320
H5277       H  0.60899502  0.95155420  0.14916884     0.10810
H5278       H  0.51581212  0.95297306  0.12430523     0.10810
H5279       H  0.55256779  0.95921074  0.10443630     0.10810
H5280       H  0.64574423  0.95894669  0.12932944     0.10810
C5281       C  0.59712176  0.54591553  0.19539192    -0.15320
C5282       C  0.56015628  0.54699540  0.19572596     0.06830
C5283       C  0.54385852  0.57104544  0.19628079    -0.15320
C5284       C  0.56408979  0.59354607  0.19637895    -0.15320
C5285       C  0.60099572  0.59249510  0.19547375     0.06830
C5286       C  0.61730082  0.56843838  0.19504692    -0.15320
H5287       H  0.61037148  0.52767215  0.19481396     0.10810
H5288       H  0.51541295  0.57243769  0.19648595     0.10810
H5289       H  0.55078249  0.61180329  0.19659997     0.10810
H5290       H  0.64567220  0.56706921  0.19431249     0.10810
C5291       C  0.81084397  0.84436776  0.19153511    -0.15320
C5292       C  0.84777893  0.84344369  0.19098706     0.06830
C5293       C  0.86445716  0.81963827  0.19005855    -0.15320
C5294       C  0.84460435  0.79708294  0.18996755    -0.15320
C5295       C  0.80781241  0.79791896  0.19123170     0.06830
C5296       C  0.79103226  0.82175018  0.19186668    -0.15320
H5297       H  0.79741736  0.86251092  0.19234061     0.10810
H5298       H  0.89289734  0.81847797  0.18961605     0.10810
H5299       H  0.85816629  0.77894357  0.18952143     0.10810
H5300       H  0.76267784  0.82285499  0.19282364     0.10810
C5301       C  0.86559075  0.57366370  0.18867394    -0.15320
C5302       C  0.85152863  0.54902845  0.18964514     0.06830
C5303       C  0.81473439  0.54554545  0.18976466    -0.15320
C5304       C  0.79225272  0.56654459  0.18903661    -0.15320
C5305       C  0.80642157  0.59121506  0.18855212     0.06830
C5306       C  0.84317424  0.59464177  0.18830885    -0.15320
H5307       H  0.89381393  0.57669433  0.18847990     0.10810
H5308       H  0.80335029  0.52656594  0.19032833     0.10810
H5309       H  0.76400896  0.56358452  0.18920854     0.10810
H5310       H  0.85461710  0.61360883  0.18779281     0.10810
C5311       C  0.56648951  0.79497310  0.19704608    -0.15320
C5312       C  0.60318173  0.79908372  0.19673673     0.06830
C5313       C  0.61625108  0.82403507  0.19599156    -0.15320
C5314       C  0.59286715  0.84451863  0.19491951    -0.15320
C5315       C  0.55615345  0.84034951  0.19493174     0.06830
C5316       C  0.54314108  0.81547686  0.19633487    -0.15320
H5317       H  0.55581637  0.77579245  0.19775675     0.10810
H5318       H  0.64435425  0.82758813  0.19574840     0.10810
H5319       H  0.60354136  0.86367440  0.19408588     0.10810
H5320       H  0.51503996  0.81186537  0.19651382     0.10810
C5321       C  0.94828167  0.79755576  0.37409231    -0.15320
C5322       C  0.95151361  0.81653335  0.36423326     0.06830
C5323       C  0.92930769  0.83787464  0.36445729    -0.15320
C5324       C  0.90623629  0.84132650  0.37509423    -0.15320
C5325       C  0.90601548  0.82378765  0.38572615     0.06830
C5326       C  0.92593129  0.80135245  0.38491092    -0.15320
H5327       H  0.96520570  0.78094636  0.37406217     0.10810
H5328       H  0.93134164  0.85260300  0.35683725     0.10810
H5329       H  0.89106828  0.85877386  0.37559210     0.10810
H5330       H  0.92586425  0.78757789  0.39304611     0.10810
C5331       C  0.68949391  0.84505649  0.37149786    -0.15320
C5332       C  0.67315672  0.82120575  0.36953448     0.06830
C5333       C  0.68105602  0.80104146  0.37837537    -0.15320
C5334       C  0.70374481  0.80511087  0.38932329    -0.15320
C5335       C  0.71950673  0.82914803  0.39130364     0.06830
C5336       C  0.71269840  0.84888850  0.38216604    -0.15320
H5337       H  0.68392256  0.86099343  0.36487018     0.10810
H5338       H  0.66872776  0.78251779  0.37711971     0.10810
H5339       H  0.70879876  0.78961062  0.39628699     0.10810
H5340       H  0.72433792  0.86761992  0.38356603     0.10810
C5341       C  0.65540071  0.79171252  0.24965167    -0.15320
C5342       C  0.62287589  0.79977298  0.25447067     0.06830
C5343       C  0.59229174  0.78704863  0.24973704    -0.15320
C5344       C  0.59460339  0.76446728  0.24216681    -0.15320
C5345       C  0.62769109  0.75450171  0.23905604     0.06830
C5346       C  0.65780414  0.76949686  0.24204988    -0.15320
H5347       H  0.67945044  0.80069916  0.25316869     0.10810
H5348       H  0.56664644  0.79275854  0.25309839     0.10810
H5349       H  0.57088095  0.75396168  0.23965294     0.10810
H5350       H  0.68390293  0.76320896  0.23928950     0.10810
C5351       C  0.52921937  0.84475775  0.24395876    -0.15320
C5352       C  0.53637945  0.84838404  0.25757072     0.06830
C5353       C  0.05421246  0.87101207  0.26142810    -0.15320
C5354       C  0.56032514  0.89089107  0.25232598    -0.15320
C5355       C  0.54937386  0.88858705  0.23903747     0.06830
C5356       C  0.53594230  0.86468442  0.23475608    -0.15320
H5357       H  0.51560616  0.82769648  0.24064341     0.10810
H5358       H  0.06068540  0.87434817  0.27185200     0.10810
H5359       H  0.56981203  0.90908563  0.25603462     0.10810
H5360       H  0.52643918  0.86258617  0.22460461     0.10810
C5361       C  0.91210635  0.57313005  0.37952316    -0.15320
C5362       C  0.92688939  0.57161862  0.36668537     0.06830
C5363       C  0.96368725  0.57383009  0.36541433    -0.15320
C5364       C  0.98508809  0.57827260  0.37670959    -0.15320
C5365       C  0.97022126  0.57982286  0.38954864     0.06830
C5366       C  0.93355338  0.57677799  0.39083316    -0.15320
H5367       H  0.88386491  0.57161800  0.38080443     0.10810
H5368       H  0.97579061  0.57302880  0.35563038     0.10810
H5369       H  0.51323223  0.58049008  0.37541267     0.10810
H5370       H  0.92127821  0.57796888  0.40057447     0.10810
C5371       C  0.73070457  0.56987738  0.37877126    -0.15320
C5372       C  0.71545111  0.56863016  0.36604667     0.06830
C5373       C  0.67871770  0.57067764  0.36452331    -0.15320
C5374       C  0.65756377  0.57504228  0.37565521    -0.15320
C5375       C  0.67303039  0.57666552  0.38836083     0.06830
C5376       C  0.70958626  0.57356119  0.38987576    -0.15320
H5377       H  0.75896842  0.56844996  0.38009093     0.10810
H5378       H  0.66657751  0.57002471  0.35469446     0.10810
H5379       H  0.62941197  0.57731547  0.37435355     0.10810
H5380       H  0.72210138  0.57486499  0.39962001     0.10810
C5381       C  0.78208099  0.60660922  0.24993790    -0.15320
C5382       C  0.75932659  0.60803710  0.26097927     0.06830
C5383       C  0.73916420  0.63027630  0.26262902    -0.15320
C5384       C  0.74190042  0.65066659  0.25355633    -0.15320
C5385       C  0.76480966  0.64936460  0.24256386     0.06830
C5386       C  0.78473717  0.62702239  0.24081661    -0.15320
H5387       H  0.79814860  0.58983045  0.24842803     0.10810
H5388       H  0.72155195  0.63210832  0.27106390     0.10810
H5389       H  0.72589809  0.66745294  0.25513470     0.10810
H5390       H  0.80233867  0.62528442  0.23237702     0.10810
C5391       C  0.91830307  0.68714437  0.32311342    -0.15320
C5392       C  0.92261310  0.66890051  0.31295532     0.06830
C5393       C  0.94837497  0.67299427  0.30315962    -0.15320
C5394       C  0.96938158  0.69502901  0.30350173    -0.15320
C5395       C  0.96565514  0.71286629  0.31387698     0.06830
C5396       C  0.94002229  0.70872584  0.32368980    -0.15320
H5397       H  0.89874886  0.68438432  0.33084977     0.10810
H5398       H  0.95220382  0.65921140  0.29525463     0.10810
H5399       H  0.48923639  0.69777323  0.29587638     0.10810
H5400       H  0.93672512  0.72222990  0.33176579     0.10810
C5401       C  0.66601472  0.94001402  0.32510530    -0.15320
C5402       C  0.66950710  0.92016671  0.31579138     0.06830
C5403       C  0.69519578  0.92214940  0.30581015    -0.15320
C5404       C  0.71691313  0.94373948  0.30506952    -0.15320
C5405       C  0.71251933  0.96409208  0.31403152     0.06830
C5406       C  0.68700819  0.96198944  0.32410947    -0.15320
H5407       H  0.64615762  0.93894325  0.33283938     0.10810
H5408       H  0.69832661  0.90704683  0.29854377     0.10810
H5409       H  0.73633453  0.94488758  0.29718624     0.10810
H5410       H  0.68316565  0.97738598  0.33114996     0.10810
C5411       C  0.69403541  0.67663476  0.30458457    -0.15320
C5412       C  0.71861948  0.67270934  0.31492313     0.06830
C5413       C  0.71998794  0.69013706  0.32558436    -0.15320
C5414       C  0.69627790  0.71063318  0.32609434    -0.15320
C5415       C  0.67160259  0.71442658  0.31574988     0.06830
C5416       C  0.67113848  0.69746666  0.30489537    -0.15320
H5417       H  0.69235862  0.66344212  0.29628156     0.10810
H5418       H  0.73847804  0.68737768  0.33374782     0.10810
H5419       H  0.69719602  0.72349039  0.33455056     0.10810
H5420       H  0.65229067  0.69986531  0.29681678     0.10810
C5421       C  0.93623959  0.95700831  0.32580789    -0.15320
C5422       C  0.91142241  0.95881156  0.31535465     0.06830
C5423       C  0.90924740  0.93896442  0.30597056    -0.15320
C5424       C  0.93293814  0.91846576  0.30659738    -0.15320
C5425       C  0.95840087  0.91713500  0.31684267     0.06830
C5426       C  0.95915524  0.93620951  0.32665177    -0.15320
H5427       H  0.93851983  0.97206281  0.33316711     0.10810
H5428       H  0.89054499  0.93996972  0.29776949     0.10810
H5429       H  0.93180470  0.90389155  0.29894898     0.10810
H5430       H  0.97861847  0.93568599  0.33461316     0.10810
C5431       C  0.92836151  0.50877185  0.26305344    -0.15320
C5432       C  0.91359761  0.53249852  0.25950004     0.06830
C5433       C  0.90010336  0.53560507  0.24648367    -0.15320
C5434       C  0.89785357  0.51490330  0.23774122    -0.15320
C5435       C  0.90957800  0.99056783  0.24170696     0.06830
C5436       C  0.92655054  0.98798515  0.25418724    -0.15320
H5437       H  0.93771898  0.50551056  0.27317822     0.10810
H5438       H  0.88760178  0.55339804  0.24360449     0.10810
H5439       H  0.88543223  0.51775776  0.22806539     0.10810
H5440       H  0.93633194  0.96954831  0.25742889     0.10810
loop_ 
_geom_bond_atom_site_label_1 
_geom_bond_atom_site_label_2 
_geom_bond_distance 
_geom_bond_site_symmetry_2 
_ccdc_geom_bond_type 
N1            N2   1.321       .  A
N1            N7   1.315       .  A
N1          Mn30   2.189       .  S
N2            C9   1.352       .  A
N3            N5   1.311       .  A
N3         N1364   1.319   1_545  A
N3          Mn19   2.181       .  S
N4         N1363   1.319       .  A
N4           C10   1.351       .  A
N5            N6   1.323       .  A
N5          Mn30   2.207       .  S
N6         C1370   1.356   1_545  A
N7            N8   1.325       .  A
N7          Mn19   2.217       .  S
N8            C9   1.355       .  A
C9         C1302   1.488       .  S
C10        N1366   1.356       .  A
C10        C1325   1.479       .  S
N11          N17   1.320       .  A
N11        N1372   1.318       .  A
N11         Mn41   2.196       .  S
N12        N1371   1.318       .  A
N12          C20   1.350       .  A
N13          N14   1.308       .  A
N13          N15   1.315       .  A
N13         Mn19   2.144       .  S
N14          C21   1.336       .  A
N15          N16   1.333       .  A
N15         Mn41   2.248       .  S
N16          C21   1.364       .  A
N17        N1378   1.326   1_545  A
N17         Mn19   2.244       .  S
N18        N1377   1.326       .  A
N18          C20   1.359       .  A
Mn19        Cl43   2.519       .  S
C20        C1342   1.481       .  S
C21        C1352   1.473       .  S
N22          N23   1.315       .  A
N22          N28   1.317       .  A
N22         Mn30   2.173       .  S
N23          C31   1.347       .  A
N24          N26   1.314       .  A
N24          N25   1.324       .  A
N24         Mn42   2.212       .  S
N25          C32   1.355       .  A
N26          N27   1.320       .  A
N26         Mn30   2.194       .  S
N27          C32   1.351       .  A
N28          N29   1.317       .  A
N28         Mn42   2.202       .  S
N29          C31   1.353       .  A
Mn30        Cl43   2.560       .  S
C31        C1292   1.457       .  S
C32        C1332   1.480       .  S
N33          N34   1.324       .  A
N33          N39   1.322       .  A
N33         Mn41   2.233       .  S
N34          C44   1.358       .  A
N35          N36   1.322       .  A
N35          N37   1.317       .  A
N35         Mn42   2.205       .  S
N36          C45   1.353       .  A
N37          N38   1.325       .  A
N37         Mn41   2.228       .  S
N38          C45   1.356       .  A
N39          N40   1.316       .  A
N39         Mn42   2.201       .  S
N40          C44   1.348       .  A
Mn41        Cl43   2.565       .  S
Mn42        Cl43   2.525       .  S
C44        C1312   1.477       .  S
C45        C1282   1.488       .  S
N46          N52   1.310       .  A
N46        N2767   1.322       .  A
N46         Mn75   2.207       .  S
N47        N2766   1.322       .  A
N47          C54   1.354       .  A
N48          N50   1.318       .  A
N48          N49   1.320       .  A
N48         Mn64   2.204       .  S
N49          C55   1.352       .  A
N50          N51   1.321       .  A
N50         Mn75   2.215       .  S
N51          C55   1.355       .  A
N52        N2773   1.321       .  A
N52         Mn64   2.183       .  S
N53        N2772   1.321       .  A
N53          C54   1.354       .  A
C54        C1345   1.479       .  S
C55        C1322   1.474       .  S
N56          N62   1.316       .  A
N56          N57   1.327       .  A
N56         Mn86   2.227       .  S
N57          C65   1.360       .  A
N58          N60   1.315       .  A
N58        N2779   1.316   1_455  A
N58         Mn64   2.188       .  S
N59        N2778   1.316       .  A
N59          C66   1.350       .  A
N60        N2781   1.319   1_455  A
N60         Mn86   2.190       .  S
N61        N2780   1.319       .  A
N61          C66   1.351       .  A
N62          N63   1.315       .  A
N62         Mn64   2.186       .  S
N63          C65   1.348       .  A
Mn64        Cl88   2.532       .  S
C65        C1252   1.480       .  S
C66        C1242   1.461       .  S
N67          N68   1.334       .  A
N67          N73   1.318       .  A
N67         Mn75   2.283       .  S
N68          C76   1.362       .  A
N69          N71   1.316       .  A
N69          N70   1.332       .  A
N69         Mn87   2.274       .  S
N70        C2797   1.362       .  A
N71          N72   1.311       .  A
N71         Mn75   2.161       .  S
N72        C2797   1.336       .  A
N73          N74   1.310       .  A
N73         Mn87   2.127       .  S
N74          C76   1.335       .  A
Mn75        Cl88   2.507       .  S
C76        C1262   1.479       .  S
C77        N2790   1.362       .  A
C77        N2792   1.336       .  A
C77        C3992   1.495       .  S
N78          N84   1.319       .  A
N78        N2799   1.323       .  A
N78         Mn86   2.229       .  S
N79        N2798   1.323       .  A
N79          C89   1.355       .  A
N80          N81   1.320       .  A
N80          N82   1.315       .  A
N80         Mn87   2.209       .  S
N81          C90   1.352       .  A
N82          N83   1.324       .  A
N82         Mn86   2.204       .  S
N83          C90   1.356       .  A
N84        N2805   1.319       .  A
N84         Mn87   2.191       .  S
N85        N2804   1.319       .  A
N85          C89   1.350       .  A
Mn86        Cl88   2.551       .  S
Mn87        Cl88   2.516       .  S
C89        C1315   1.474       .  S
C90        C1335   1.481       .  S
N91          N92   1.334       .  A
N91        N2817   1.317   1_455  A
N91        Mn120   2.245       .  S
N92          C99   1.361       .  A
N93          N94   1.324       .  A
N93        N2815   1.320       .  A
N93        Mn109   2.240       .  S
N94        C2820   1.357       .  A
N95          N96   1.314       .  A
N95        N2813   1.320   1_455  A
N95        Mn120   2.171       .  S
N96         C100   1.345       .  A
N97          N98   1.311       .  A
N97        N2811   1.317       .  A
N97        Mn109   2.153       .  S
N98        C2819   1.334       .  A
C99        N2818   1.334       .  A
C99        C1275   1.480       .  S
C100       N2814   1.357       .  A
C100       C1235   1.472       .  S
N101        N107   1.309       .  A
N101        N102   1.323       .  A
N101       Mn131   2.192       .  S
N102        C110   1.355       .  A
N103        N104   1.327       .  A
N103        N105   1.316       .  A
N103       Mn109   2.214       .  S
N104        C111   1.353       .  A
N105        N106   1.320       .  A
N105       Mn131   2.187       .  S
N106        C111   1.349       .  A
N107        N108   1.320       .  A
N107       Mn109   2.188       .  S
N108        C110   1.352       .  A
Mn109      Cl133   2.495       .  S
C110       C1212   1.476       .  S
C111       C1355   1.488       .  S
N112        N113   1.323       .  A
N112       N2838   1.315   1_455  A
N112       Mn120   2.213       .  S
N113        C121   1.354       .  A
N114        N115   1.321   1_665  A
N114       N1476   1.322   1_655  A
N114      Mn4212   2.223       .  S
N115        C122   1.352       .  A
N116       N1474   1.322   1_455  A
N116       N1477   1.325       .  A
N116       Mn120   2.238       .  S
N117       N1476   1.325       .  A
N117        C122   1.358   1_565  A
N118       N2832   1.315       .  A
N118       N2839   1.322       .  A
N118       Mn132   2.198       .  S
N119       N2838   1.322   1_455  A
N119        C121   1.353       .  A
Mn120     Cl2853   2.565   1_455  S
C121       C1192   1.482       .  S
C122       C1202   1.486       .  S
N123        N124   1.315   1_565  A
N123        N129   1.313   1_565  A
N123      Mn1491   2.162       .  S
N124        C134   1.345       .  A
N125        N126   1.319       .  A
N125        N127   1.319       .  A
N125       Mn132   2.222       .  S
N126        C135   1.354       .  A
N127        N128   1.317       .  A
N127       Mn131   2.179       .  S
N128        C135   1.348       .  A
N129        N130   1.322       .  A
N129      Mn1492   2.202   1_545  S
N130        C134   1.355       .  A
Mn131      N1483   2.162       .  S
Mn131      Cl133   2.556       .  S
Mn132      N4194   2.223       .  S
Mn132      N1489   2.202       .  S
Mn132      Cl133   2.523       .  S
Cl133     Mn2840   2.565       .  S
C134       C1222   1.465       .  S
C135       C1182   1.464       .  S
N136        N137   1.335       .  A
N136        N142   1.316       .  A
N136       Mn165   2.241       .  S
N137        C144   1.361       .  A
N138        N140   1.317       .  A
N138        N139   1.327       .  A
N138       Mn154   2.254       .  S
N139        C145   1.361       .  A
N140        N141   1.312       .  A
N140       Mn165   2.147       .  S
N141        C145   1.343       .  A
N142        N143   1.310       .  A
N142       Mn154   2.172       .  S
N143        C144   1.335       .  A
C144       C1265   1.495       .  S
C145       C1232   1.471       .  S
N146        N152   1.311       .  A
N146        N147   1.321       .  A
N146       Mn176   2.196       .  S
N147        C155   1.354       .  A
N148        N149   1.323       .  A
N148        N150   1.314       .  A
N148       Mn154   2.207       .  S
N149        C156   1.353       .  A
N150        N151   1.324       .  A
N150       Mn176   2.198       .  S
N151        C156   1.353       .  A
N152        N153   1.320       .  A
N152       Mn154   2.187       .  S
N153        C155   1.353       .  A
Mn154      Cl178   2.496       .  S
C155       C1215   1.477       .  S
C156       C1305   1.489       .  S
N157        N158   1.318       .  A
N157        N163   1.315       .  A
N157       Mn165   2.186       .  S
N158        C166   1.348       .  A
N159        N161   1.324       .  A
N159        N160   1.322       .  A
N159       Mn177   2.237       .  S
N160        C167   1.354       .  A
N161        N162   1.325       .  A
N161       Mn165   2.235       .  S
N162        C167   1.357       .  A
N163        N164   1.320       .  A
N163       Mn177   2.194       .  S
N164        C166   1.354       .  A
Mn165      Cl178   2.555       .  S
C166       C1162   1.471       .  S
C167       C1205   1.487       .  S
N168        N169   1.312       .  A
N168        N174   1.313       .  A
N168       Mn176   2.161       .  S
N169        C179   1.344       .  A
N170        N171   1.329       .  A
N170        N172   1.319       .  A
N170       Mn177   2.258       .  S
N171        C180   1.363       .  A
N172        N173   1.316       .  A
N172       Mn176   2.189       .  S
N173        C180   1.349       .  A
N174        N175   1.323       .  A
N174       Mn177   2.203       .  S
N175        C179   1.356       .  A
Mn176      Cl178   2.543       .  S
Mn177      Cl178   2.540       .  S
C179       C1225   1.464       .  S
C180       C1172   1.491       .  S
N181        N182   1.322       .  A
N181        N187   1.317       .  A
N181       Mn210   2.208       .  S
N182        C189   1.352       .  A
N183        N185   1.321       .  A
N183        N184   1.319       .  A
N183       Mn199   2.214       .  S
N184        C190   1.352       .  A
N185        N186   1.320       .  A
N185       Mn210   2.211       .  S
N186        C190   1.354       .  A
N187        N188   1.325       .  A
N187       Mn199   2.231       .  S
N188        C189   1.359       .  A
C189       C1175   1.491       .  S
C190       C1122   1.477       .  S
N191        N192   1.314       .  A
N191       N2917   1.314   1_455  A
N191       Mn221   2.161       .  S
N192        C200   1.344       .  A
N193        N194   1.323       .  A
N193       N2915   1.318       .  A
N193       Mn199   2.223       .  S
N194       C2921   1.358       .  A
N195        N196   1.313       .  A
N195       N2913   1.318   1_455  A
N195       Mn221   2.179       .  S
N196        C201   1.347       .  A
N197        N198   1.328       .  A
N197       N2911   1.314       .  A
N197       Mn199   2.236       .  S
N198       C2920   1.362       .  A
Mn199      Cl223   2.544       .  S
C200       N2918   1.362       .  A
C200       C1145   1.479       .  S
C201       N2914   1.358       .  A
C201       C1165   1.471       .  S
N202        N203   1.331       .  A
N202        N208   1.310       .  A
N202       Mn210   2.242       .  S
N203        C211   1.368       .  A
N204        N206   1.316       .  A
N204        N205   1.328       .  A
N204       Mn222   2.258       .  S
N205        C212   1.364       .  A
N206        N207   1.313       .  A
N206       Mn210   2.150       .  S
N207        C212   1.344       .  A
N208        N209   1.304       .  A
N208       Mn222   2.140       .  S
N209        C211   1.330       .  A
Mn210      Cl223   2.560       .  S
C211       C1102   1.467       .  S
C212       C1132   1.479       .  S
N213        N214   1.321       .  A
N213       N2939   1.310       .  A
N213       Mn221   2.206       .  S
N214        C224   1.355       .  A
N215        N216   1.322       .  A
N215       N2937   1.313       .  A
N215       Mn222   2.200       .  S
N216       C2945   1.350       .  A
N217        N218   1.327       .  A
N217       N2935   1.313       .  A
N217       Mn221   2.206       .  S
N218        C225   1.356       .  A
N219        N220   1.320       .  A
N219       N2933   1.310       .  A
N219       Mn222   2.175       .  S
N220       C2944   1.353       .  A
Mn221     Cl2943   2.533   1_455  S
Mn222      Cl223   2.505       .  S
Cl223     Mn2941   2.533       .  S
C224       N2940   1.353       .  A
C224       C1112   1.479       .  S
C225       N2936   1.350   1_455  A
C225       C1152   1.494       .  S
N226        N227   1.321       .  A
N226        N232   1.318       .  A
N226       Mn255   2.210       .  S
N227        C234   1.352       .  A
N228        N230   1.322       .  A
N228        N229   1.320       .  A
N228      Mn1604   2.221       .  S
N229        C235   1.353       .  A
N230        N231   1.321       .  A
N230      Mn1615   2.214   1_545  S
N231        C235   1.354       .  A
N232        N233   1.325       .  A
N232       Mn244   2.221       .  S
N233        C234   1.356       .  A
C234       C1195   1.483       .  S
C235       C1115   1.480       .  S
N236        N242   1.314       .  A
N236        N237   1.313       .  A
N236      Mn1626   2.160   1_545  S
N237        C245   1.344       .  A
N238        N239   1.323       .  A
N238        N240   1.318       .  A
N238       Mn244   2.222       .  S
N239        C246   1.357       .  A
N240        N241   1.312       .  A
N240       Mn266   2.171       .  S
N241        C246   1.346       .  A
N242        N243   1.327       .  A
N242      Mn1604   2.233       .  S
N243        C245   1.362       .  A
Mn244      N1588   2.221       .  S
Mn244      N1602   2.233       .  S
Mn244      Cl268   2.530       .  S
C245       C1135   1.479       .  S
C246       C1185   1.465       .  S
N247        N248   1.332       .  A
N247        N253   1.310       .  A
N247       Mn255   2.244       .  S
N248        C256   1.368       .  A
N249        N251   1.315       .  A
N249        N250   1.329       .  A
N249       Mn267   2.263       .  S
N250        C257   1.364       .  A
N251        N252   1.313       .  A
N251       Mn255   2.148       .  S
N252        C257   1.344       .  A
N253        N254   1.304       .  A
N253       Mn267   2.144       .  S
N254        C256   1.329       .  A
Mn255      N1590   2.214       .  S
Mn255      Cl268   2.556       .  S
C256       C1092   1.469       .  S
C257       C1142   1.480       .  S
N258        N259   1.320       .  A
N258        N264   1.310       .  A
N258       Mn266   2.200       .  S
N259        C269   1.354       .  A
N260        N261   1.322       .  A
N260        N262   1.311       .  A
N260       Mn267   2.198       .  S
N261        C270   1.350       .  A
N262        N263   1.325       .  A
N262       Mn266   2.197       .  S
N263        C270   1.355       .  A
N264        N265   1.319       .  A
N264       Mn267   2.174       .  S
N265        C269   1.353       .  A
Mn266      N1596   2.160       .  S
Mn266      Cl268   2.539       .  S
Mn267      Cl268   2.509       .  S
C269       C1125   1.476       .  S
C270       C2442   1.491       .  S
N271        N272   1.326       .  A
N271        N277   1.312   1_655  A
N271       Mn300   2.205       .  S
N272        C279   1.356   1_655  A
N273        N275   1.310   1_455  A
N273        N274   1.320       .  A
N273       Mn289   2.175       .  S
N274        C280   1.353   1_455  A
N275       N2996   1.320       .  A
N275       Mn300   2.203       .  S
N276       N2995   1.320       .  A
N276       C3000   1.355       .  A
N277        N278   1.322       .  A
N277       Mn289   2.200       .  S
N278        C279   1.350       .  A
C279       C1155   1.494       .  S
C280       N2996   1.355       .  A
C280       C3762   1.477       .  S
N281        N287   1.317       .  A
N281        N282   1.313       .  A
N281       Mn311   2.152       .  S
N282        C290   1.345       .  A
N283        N284   1.304       .  A
N283        N285   1.310       .  A
N283       Mn289   2.140       .  S
N284        C291   1.329       .  A
N285        N286   1.332       .  A
N285       Mn311   2.246       .  S
N286        C291   1.368       .  A
N287        N288   1.327       .  A
N287       Mn289   2.256       .  S
N288        C290   1.362       .  A
Mn289      Cl313   2.497       .  S
C290       C1072   1.477       .  S
C291       C1095   1.468       .  S
N292        N298   1.318   1_655  A
N292       N3013   1.314       .  A
N292       Mn300   2.179       .  S
N293       N3012   1.314       .  A
N293       C3021   1.348       .  A
N294        N296   1.313   1_455  A
N294        N295   1.325       .  A
N294       Mn312   2.225       .  S
N295        C302   1.360   1_455  A
N296        N297   1.313       .  A
N296       Mn300   2.158       .  S
N297        C302   1.344       .  A
N298        N299   1.321       .  A
N298       Mn312   2.215       .  S
N299        C301   1.355   1_455  A
Mn300      Cl313   2.540   1_655  S
C301       N3013   1.348       .  A
C301       C3752   1.464       .  S
C302       C3785   1.475       .  S
N303        N304   1.320       .  A
N303        N309   1.321       .  A
N303       Mn311   2.209       .  S
N304        C314   1.354       .  A
N305        N306   1.323       .  A
N305        N307   1.317       .  A
N305       Mn312   2.216       .  S
N306        C315   1.355       .  A
N307        N308   1.324       .  A
N307       Mn311   2.222       .  S
N308        C315   1.355       .  A
N309        N310   1.319       .  A
N309       Mn312   2.213       .  S
N310        C314   1.352       .  A
Mn311      Cl313   2.567       .  S
Mn312      Cl313   2.529       .  S
C314       C1052   1.476       .  S
C315       C1022   1.488       .  S
N316        N317   1.325       .  A
N316        N322   1.312       .  A
N316       Mn345   2.200       .  S
N317        C324   1.355       .  A
N318        N320   1.310       .  A
N318        N319   1.319       .  A
N318       Mn334   2.173       .  S
N319        C325   1.352       .  A
N320        N321   1.320       .  A
N320       Mn345   2.202       .  S
N321        C325   1.355       .  A
N322        N323   1.322       .  A
N322       Mn334   2.198       .  S
N323        C324   1.350       .  A
C324       C1085   1.491       .  S
C325       C1055   1.476       .  S
N326        N332   1.316       .  A
N326        N327   1.312       .  A
N326       Mn356   2.149       .  S
N327        C335   1.344       .  A
N328        N329   1.304       .  A
N328        N330   1.311       .  A
N328       Mn334   2.142       .  S
N329        C336   1.329       .  A
N330        N331   1.332       .  A
N330       Mn356   2.246       .  S
N331        C336   1.368       .  A
N332        N333   1.327       .  A
N332       Mn334   2.256       .  S
N333        C335   1.362       .  A
Mn334      Cl358   2.494       .  S
C335       C1062   1.477       .  S
C336       C1105   1.469       .  S
N337        N338   1.314       .  A
N337        N343   1.318       .  A
N337       Mn345   2.175       .  S
N338        C346   1.347       .  A
N339        N341   1.314       .  A
N339        N340   1.326       .  A
N339       Mn357   2.226       .  S
N340        C347   1.360       .  A
N341        N342   1.313       .  A
N341       Mn345   2.159       .  S
N342        C347   1.344       .  A
N343        N344   1.321       .  A
N343       Mn357   2.216       .  S
N344        C346   1.355       .  A
Mn345      Cl358   2.540       .  S
C346       C1015   1.463       .  S
C347       C1075   1.476   1_545  S
N348        N349   1.321       .  A
N348        N354   1.321       .  A
N348       Mn356   2.212       .  S
N349        C359   1.354       .  A
N350        N351   1.323       .  A
N350        N352   1.317       .  A
N350       Mn357   2.216       .  S
N351        C360   1.355       .  A
N352        N353   1.324       .  A
N352       Mn356   2.220       .  S
N353        C360   1.355       .  A
N354        N355   1.319       .  A
N354       Mn357   2.215       .  S
N355        C359   1.352       .  A
Mn356      Cl358   2.566       .  S
Mn357      Cl358   2.530       .  S
C359       C1045   1.477   1_545  S
C360       C1002   1.488       .  S
N361        N362   1.309       .  A
N361        N367   1.317       .  A
N361       Mn390   2.158       .  S
N362        C369   1.343       .  A
N363        N365   1.314       .  A
N363        N364   1.328       .  A
N363       Mn379   2.236       .  S
N364        C370   1.362       .  A
N365        N366   1.314       .  A
N365       Mn390   2.164       .  S
N366        C370   1.344       .  A
N367        N368   1.323       .  A
N367       Mn379   2.215       .  S
N368        C369   1.357       .  A
C369       C1295   1.458       .  S
C370        C982   1.481       .  S
N371        N377   1.321       .  A
N371       N3092   1.320   1_455  A
N371       Mn401   2.210       .  S
N372       N3091   1.320       .  A
N372        C380   1.353       .  A
N373        N374   1.326       .  A
N373        N375   1.317       .  A
N373       Mn379   2.225       .  S
N374       C3101   1.357   1_455  A
N375       N3096   1.322   1_455  A
N375       Mn401   2.218       .  S
N376       N3095   1.322       .  A
N376        C381   1.354       .  A
N377        N378   1.319       .  A
N377       Mn379   2.213       .  S
N378       C3100   1.352   1_455  A
Mn379      Cl403   2.540       .  S
C380       N3098   1.352       .  A
C380        C952   1.475       .  S
C381       N3094   1.357       .  A
C381       C1285   1.490       .  S
N382        N383   1.324       .  A
N382        N388   1.312       .  A
N382       Mn390   2.191       .  S
N383        C391   1.355       .  A
N384        N386   1.310       .  A
N384        N385   1.319       .  A
N384       Mn402   2.169       .  S
N385       C1752   1.352       .  A
N386        N387   1.320       .  A
N386       Mn390   2.201       .  S
N387       C1752   1.354       .  A
N388        N389   1.320       .  A
N388       Mn402   2.195       .  S
N389        C391   1.349       .  A
Mn390      Cl403   2.533       .  S
C391        C992   1.485       .  S
C392       N1745   1.352       .  A
C392       N1747   1.354       .  A
C392        C965   1.475       .  S
N393        N399   1.315       .  A
N393       N3114   1.313   1_455  A
N393       Mn401   2.149       .  S
N394       N3113   1.313       .  A
N394       C1764   1.344       .  A
N395        N396   1.304       .  A
N395        N397   1.310       .  A
N395       Mn402   2.141       .  S
N396        C405   1.329       .  A
N397       N3118   1.332   1_455  A
N397       Mn401   2.251       .  S
N398       N3117   1.332       .  A
N398       C3125   1.369       .  A
N399        N400   1.327       .  A
N399       Mn402   2.256       .  S
N400       C4484   1.363   1_455  A
Mn401      Cl403   2.561       .  S
Mn402      Cl403   2.500       .  S
C404       N1754   1.344       .  A
C404       N4480   1.363       .  A
C404        C972   1.479       .  S
C405       N3118   1.369   1_455  A
C405        C942   1.470   1_455  S
N406        N407   1.315       .  A
N406        N412   1.317       .  A
N406       Mn435   2.185       .  S
N407        C414   1.350       .  A
N408        N410   1.313       .  A
N408        N409   1.326       .  A
N408       Mn424   2.223       .  S
N409        C415   1.361       .  A
N410        N411   1.314       .  A
N410       Mn435   2.166       .  S
N411        C415   1.345       .  A
N412        N413   1.320       .  A
N412       Mn424   2.202       .  S
N413        C414   1.353       .  A
C414       C1245   1.460       .  S
C415        C975   1.478       .  S
N416        N422   1.321       .  A
N416        N417   1.322       .  A
N416       Mn446   2.220       .  S
N417        C425   1.355       .  A
N418        N419   1.321       .  A
N418        N420   1.316       .  A
N418       Mn424   2.206       .  S
N419        C426   1.353       .  A
N420        N421   1.322       .  A
N420       Mn446   2.209       .  S
N421        C426   1.352       .  A
N422        N423   1.318       .  A
N422       Mn424   2.201       .  S
N423        C425   1.350       .  A
Mn424      Cl448   2.530       .  S
C425        C962   1.475       .  S
C426       C1255   1.474       .  S
N427        N428   1.327       .  A
N427        N433   1.313       .  A
N427       Mn435   2.205       .  S
N428        C436   1.356       .  A
N429        N431   1.310       .  A
N429        N430   1.318       .  A
N429       Mn447   2.166       .  S
N430        C437   1.352       .  A
N431        N432   1.320       .  A
N431       Mn435   2.199       .  S
N432        C437   1.354       .  A
N433        N434   1.320       .  A
N433       Mn447   2.197       .  S
N434        C436   1.348       .  A
Mn435      Cl448   2.539       .  S
C436        C932   1.491       .  S
C437        C955   1.474       .  S
N438        N439   1.313       .  A
N438        N444   1.315       .  A
N438       Mn446   2.152       .  S
N439        C449   1.344       .  A
N440        N441   1.304       .  A
N440        N442   1.311       .  A
N440       Mn447   2.143       .  S
N441        C450   1.331       .  A
N442        N443   1.331       .  A
N442       Mn446   2.240       .  S
N443        C450   1.368       .  A
N444        N445   1.328       .  A
N444       Mn447   2.256       .  S
N445        C449   1.364       .  A
Mn446      Cl448   2.554       .  S
Mn447      Cl448   2.508       .  S
C449        C985   1.481       .  S
C450        C922   1.466       .  S
N451        N457   1.311       .  A
N451       N3172   1.333       .  A
N451      Mn3200   2.249       .  S
N452       N3171   1.333       .  A
N452        C459   1.368       .  A
N453        N455   1.316       .  A
N453        N454   1.327       .  A
N453       Mn469   2.255   1_545  S
N454        C460   1.362       .  A
N455       N3176   1.312       .  A
N455      Mn4560   2.145   1_545  S
N456       N3175   1.312       .  A
N456       C3180   1.344       .  A
N457        N458   1.304       .  A
N457      Mn1829   2.144       .  S
N458       C3179   1.329       .  A
C459       N3178   1.329   1_455  A
C459       C2305   1.472       .  S
C460       N3176   1.344       .  A
C460       C3622   1.476       .  S
N461        N467   1.310       .  A
N461        N462   1.321       .  A
N461      Mn1851   2.206   1_545  S
N462        C470   1.356       .  A
N463        N464   1.322       .  A
N463        N465   1.311       .  A
N463      Mn1829   2.194       .  S
N464        C471   1.350       .  A
N465        N466   1.325       .  A
N465       Mn491   2.199       .  S
N466        C471   1.356       .  A
N467        N468   1.319       .  A
N467       Mn469   2.174   1_545  S
N468        C470   1.353       .  A
Mn469      N1817   2.144       .  S
Mn469      N1823   2.194       .  S
Mn469     Cl1853   2.502       .  S
C470        C892   1.478       .  S
C471        C935   1.490       .  S
N472        N473   1.323       .  A
N472       N3198   1.318   1_455  A
N472       Mn480   2.220       .  S
N473        C481   1.354       .  A
N474        N475   1.319       .  A
N474       N3196   1.322       .  A
N474       Mn492   2.215       .  S
N475       C3202   1.352       .  A
N476        N477   1.322       .  A
N476       N3194   1.322   1_455  A
N476       Mn480   2.216       .  S
N477        C482   1.355       .  A
N478        N479   1.324       .  A
N478       N3192   1.318       .  A
N478       Mn492   2.215       .  S
N479       C3201   1.355       .  A
Mn480      N3171   2.249       .  S
Mn480      N4535   2.145       .  S
Mn480     Cl3213   2.562   1_455  S
C481       N3199   1.355   1_455  A
C481        C872   1.486       .  S
C482       N3195   1.352   1_455  A
C482        C882   1.478       .  S
N483        N484   1.314       .  A
N483        N489   1.314       .  A
N483       Mn491   2.162       .  S
N484        C494   1.344       .  A
N485        N486   1.321       .  A
N485        N487   1.318       .  A
N485       Mn492   2.217       .  S
N486        C495   1.355       .  A
N487        N488   1.315       .  A
N487       Mn491   2.181       .  S
N488        C495   1.348       .  A
N489        N490   1.325       .  A
N489       Mn492   2.221       .  S
N490        C494   1.359       .  A
Mn491      N1821   2.206       .  S
Mn491      Cl493   2.545       .  S
Mn492      Cl493   2.523       .  S
Cl493     Mn1829   2.502       .  S
Cl493     Mn3200   2.562       .  S
C494        C912   1.473       .  S
C495        C862   1.465       .  S
N496        N497   1.331       .  A
N496        N502   1.311       .  A
N496       Mn525   2.242       .  S
N497        C504   1.366       .  A
N498        N500   1.316       .  A
N498        N499   1.326       .  A
N498       Mn514   2.248       .  S
N499        C505   1.361       .  A
N500        N501   1.313       .  A
N500       Mn525   2.150       .  S
N501        C505   1.345       .  A
N502        N503   1.304       .  A
N502       Mn514   2.146       .  S
N503        C504   1.330       .  A
C504        C925   1.469       .  S
C505        C915   1.474       .  S
N506        N512   1.310       .  A
N506        N507   1.320       .  A
N506       Mn536   2.203       .  S
N507        C515   1.355       .  A
N508        N509   1.321       .  A
N508        N510   1.311       .  A
N508       Mn514   2.190       .  S
N509        C516   1.349       .  A
N510        N511   1.324       .  A
N510       Mn536   2.194       .  S
N511        C516   1.355       .  A
N512        N513   1.319       .  A
N512       Mn514   2.174       .  S
N513        C515   1.353       .  A
Mn514      Cl538   2.504       .  S
C515        C885   1.478       .  S
C516        C995   1.485       .  S
N517        N518   1.322       .  A
N517        N523   1.317       .  A
N517       Mn525   2.215       .  S
N518        C526   1.353       .  A
N519        N521   1.321       .  A
N519        N520   1.319       .  A
N519       Mn537   2.216       .  S
N520        C527   1.352       .  A
N521        N522   1.321       .  A
N521       Mn525   2.215       .  S
N522        C527   1.355       .  A
N523        N524   1.324       .  A
N523       Mn537   2.215       .  S
N524        C526   1.355       .  A
Mn525      Cl538   2.559       .  S
C526        C852   1.484       .  S
C527        C895   1.479       .  S
N528        N529   1.314       .  A
N528        N534   1.314       .  A
N528       Mn536   2.162       .  S
N529        C539   1.344       .  A
N530        N531   1.321       .  A
N530        N532   1.318       .  A
N530       Mn537   2.216       .  S
N531        C540   1.355       .  A
N532        N533   1.314       .  A
N532       Mn536   2.176       .  S
N533        C540   1.347       .  A
N534        N535   1.325       .  A
N534       Mn537   2.223       .  S
N535        C539   1.360       .  A
Mn536      Cl538   2.543       .  S
Mn537      Cl538   2.524       .  S
C539        C905   1.475       .  S
C540        C842   1.463       .  S
N541        N542   1.323       .  A
N541        N547   1.317       .  A
N541       Mn570   2.219       .  S
N542        C549   1.354       .  A
N543        N545   1.323       .  A
N543        N544   1.317       .  A
N543       Mn559   2.206       .  S
N544        C550   1.349       .  A
N545        N546   1.322       .  A
N545       Mn570   2.223       .  S
N546        C550   1.356       .  A
N547        N548   1.323       .  A
N547       Mn559   2.207       .  S
N548        C549   1.354       .  A
C549        C855   1.484       .  S
C550        C802   1.474       .  S
N551        N552   1.314       .  A
N551       N3277   1.312   1_455  A
N551       Mn581   2.161       .  S
N552        C560   1.345       .  A
N553        N554   1.320       .  A
N553       N3275   1.319       .  A
N553       Mn559   2.214       .  S
N554       C3281   1.354       .  A
N555        N556   1.316       .  A
N555       N3273   1.319   1_455  A
N555       Mn581   2.184       .  S
N556        C561   1.349       .  A
N557        N558   1.325       .  A
N557       N3271   1.312       .  A
N557       Mn559   2.215       .  S
N558       C3280   1.359       .  A
Mn559      Cl583   2.523       .  S
C560       N3278   1.359   1_455  A
C560        C822   1.475       .  S
C561       N3274   1.354   1_455  A
C561        C845   1.463       .  S
N562        N563   1.336       .  A
N562        N568   1.312       .  A
N562       Mn570   2.260       .  S
N563        C571   1.369       .  A
N564        N566   1.318       .  A
N564        N565   1.324       .  A
N564       Mn582   2.239       .  S
N565        C572   1.360       .  A
N566        N567   1.313       .  A
N566       Mn570   2.168       .  S
N567        C572   1.346       .  A
N568        N569   1.307       .  A
N568       Mn582   2.132       .  S
N569        C571   1.332       .  A
Mn570      Cl583   2.560       .  S
C571        C782   1.479       .  S
C572        C812   1.474       .  S
N573        N574   1.322       .  A
N573       N3299   1.308   1_455  A
N573       Mn581   2.193       .  S
N574        C584   1.355       .  A
N575        N576   1.324       .  A
N575       N3297   1.317       .  A
N575       Mn582   2.203       .  S
N576       C3305   1.349       .  A
N577        N578   1.323       .  A
N577       N3295   1.317   1_455  A
N577       Mn581   2.195       .  S
N578        C585   1.351   1_455  A
N579        N580   1.317       .  A
N579       N3293   1.308       .  A
N579       Mn582   2.164       .  S
N580       C3304   1.350       .  A
Mn581     Cl3303   2.550   1_455  S
Mn582      Cl583   2.510       .  S
Cl583     Mn3301   2.550       .  S
C584       N3300   1.350   1_455  A
C584        C792   1.474       .  S
C585       N3296   1.349       .  A
C585        C832   1.488       .  S
N586        N587   1.316       .  A
N586        N592   1.319       .  A
N586       Mn615   2.181       .  S
N587        C594   1.348       .  A
N588        N590   1.313       .  A
N588        N589   1.326       .  A
N588       Mn604   2.225       .  S
N589        C595   1.360       .  A
N590        N591   1.314       .  A
N590       Mn615   2.159       .  S
N591        C595   1.344       .  A
N592        N593   1.320       .  A
N592       Mn604   2.215       .  S
N593        C594   1.354       .  A
C594       C1012   1.462       .  S
C595       C2122   1.478   1_545  S
N596        N602   1.321       .  A
N596       N3317   1.320   1_455  A
N596       Mn626   2.214       .  S
N597       N3316   1.320       .  A
N597        C605   1.354       .  A
N598        N599   1.325       .  A
N598        N600   1.317       .  A
N598       Mn604   2.217       .  S
N599       C3326   1.356   1_455  A
N600       N3321   1.322   1_455  A
N600       Mn626   2.215       .  S
N601       N3320   1.322       .  A
N601        C606   1.353       .  A
N602        N603   1.319       .  A
N602       Mn604   2.213       .  S
N603       C3325   1.352   1_455  A
Mn604      Cl628   2.540       .  S
C605       N3323   1.352       .  A
C605       C2102   1.476   1_545  S
C606       N3319   1.356       .  A
C606       C1005   1.488       .  S
N607        N608   1.324       .  A
N607        N613   1.317       .  A
N607       Mn615   2.201       .  S
N608        C616   1.352       .  A
N609        N611   1.309       .  A
N609        N610   1.319       .  A
N609       Mn627   2.178       .  S
N610        C617   1.353       .  A
N611        N612   1.321       .  A
N611       Mn615   2.193       .  S
N612        C617   1.354       .  A
N613        N614   1.326       .  A
N613       Mn627   2.211       .  S
N614        C616   1.351       .  A
Mn615      Cl628   2.539       .  S
C616        C732   1.493       .  S
C617        C752   1.477       .  S
N618        N624   1.318       .  A
N618       N3339   1.313   1_455  A
N618       Mn626   2.170       .  S
N619       N3338   1.313       .  A
N619        C629   1.345       .  A
N620        N621   1.306       .  A
N620        N622   1.312       .  A
N620       Mn627   2.132       .  S
N621        C630   1.333   1_455  A
N622       N3343   1.334   1_455  A
N622       Mn626   2.249       .  S
N623       N3342   1.334       .  A
N623       C3350   1.367       .  A
N624        N625   1.326       .  A
N624       Mn627   2.246       .  S
N625       C3349   1.362   1_455  A
Mn626      Cl628   2.558       .  S
Mn627      Cl628   2.516       .  S
C629       N3345   1.362       .  A
C629        C772   1.478       .  S
C630       N3343   1.367       .  A
C630        C835   1.473       .  S
N631        N632   1.323       .  A
N631        N637   1.317       .  A
N631       Mn660   2.218       .  S
N632        C639   1.354       .  A
N633        N635   1.322       .  A
N633        N634   1.317       .  A
N633       Mn649   2.204       .  S
N634        C640   1.349       .  A
N635        N636   1.321       .  A
N635       Mn660   2.220       .  S
N636        C640   1.356       .  A
N637        N638   1.323       .  A
N637       Mn649   2.207       .  S
N638        C639   1.354       .  A
C639        C875   1.485       .  S
C640        C795   1.474       .  S
N641        N647   1.312       .  A
N641        N642   1.314       .  A
N641       Mn671   2.161       .  S
N642        C650   1.345       .  A
N643        N644   1.320       .  A
N643        N645   1.319       .  A
N643       Mn649   2.214       .  S
N644        C651   1.354       .  A
N645        N646   1.317       .  A
N645       Mn671   2.188       .  S
N646        C651   1.350       .  A
N647        N648   1.325       .  A
N647       Mn649   2.215       .  S
N648        C650   1.359       .  A
Mn649      Cl673   2.529       .  S
C650        C815   1.475       .  S
C651        C865   1.465       .  S
N652        N653   1.336       .  A
N652        N658   1.312       .  A
N652       Mn660   2.260       .  S
N653        C661   1.369       .  A
N654        N656   1.318       .  A
N654        N655   1.324       .  A
N654      Mn2032   2.239       .  S
N655        C662   1.360       .  A
N656        N657   1.314       .  A
N656      Mn2020   2.169   1_545  S
N657        C662   1.346       .  A
N658        N659   1.307       .  A
N658       Mn672   2.133       .  S
N659        C661   1.332       .  A
Mn660      N2016   2.169       .  S
Mn660      Cl673   2.566       .  S
C661        C735   1.479       .  S
C662        C825   1.475       .  S
N663        N664   1.322       .  A
N663        N669   1.309       .  A
N663      Mn2031   2.195   1_545  S
N664        C674   1.355       .  A
N665        N666   1.324       .  A
N665        N667   1.317       .  A
N665       Mn672   2.203       .  S
N666        C675   1.349       .  A
N667        N668   1.324       .  A
N667       Mn671   2.200       .  S
N668        C675   1.352       .  A
N669        N670   1.317       .  A
N669      Mn2032   2.167       .  S
N670        C674   1.350       .  A
Mn671      N2023   2.195       .  S
Mn671      Cl673   2.545       .  S
Mn672      N2014   2.239       .  S
Mn672      N2029   2.167       .  S
Mn672      Cl673   2.505       .  S
C674        C805   1.474       .  S
C675        C722   1.489       .  S
N676        N677   1.316       .  A
N676        N682   1.319       .  A
N676       Mn705   2.183       .  S
N677        C684   1.348       .  A
N678        N680   1.313       .  A
N678        N679   1.326       .  A
N678       Mn694   2.225       .  S
N679        C685   1.360       .  A
N680        N681   1.314       .  A
N680       Mn705   2.160       .  S
N681        C685   1.344       .  A
N682        N683   1.320       .  A
N682       Mn694   2.217       .  S
N683        C684   1.355       .  A
C684       C1035   1.463       .  S
C685        C775   1.477       .  S
N686        N692   1.322       .  A
N686        N687   1.320       .  A
N686       Mn716   2.215       .  S
N687        C695   1.354       .  A
N688        N689   1.325       .  A
N688        N690   1.317       .  A
N688       Mn694   2.219       .  S
N689        C696   1.356       .  A
N690        N691   1.322       .  A
N690       Mn716   2.218       .  S
N691        C696   1.353       .  A
N692        N693   1.319       .  A
N692       Mn694   2.215       .  S
N693        C695   1.352       .  A
Mn694      Cl718   2.533       .  S
C695        C755   1.477       .  S
C696       C1025   1.489       .  S
N697        N698   1.323       .  A
N697        N703   1.316       .  A
N697       Mn705   2.199       .  S
N698        C706   1.352       .  A
N699        N701   1.309       .  A
N699        N700   1.319       .  A
N699       Mn717   2.176       .  S
N700        C707   1.352       .  A
N701        N702   1.321       .  A
N701       Mn705   2.192       .  S
N702        C707   1.354       .  A
N703        N704   1.326       .  A
N703       Mn717   2.212       .  S
N704        C706   1.351       .  A
Mn705      Cl718   2.546       .  S
C706        C785   1.494       .  S
C707        C745   1.477       .  S
N708        N709   1.314       .  A
N708        N714   1.318       .  A
N708       Mn716   2.171       .  S
N709        C719   1.346       .  A
N710        N711   1.306       .  A
N710        N712   1.311       .  A
N710       Mn717   2.131       .  S
N711        C720   1.333       .  A
N712        N713   1.334       .  A
N712       Mn716   2.250       .  S
N713        C720   1.368       .  A
N714        N715   1.326       .  A
N714       Mn717   2.244       .  S
N715        C719   1.361       .  A
Mn716      Cl718   2.555       .  S
Mn717      Cl718   2.520       .  S
C719        C765   1.477       .  S
C720        C725   1.473       .  S
C721        C722   1.407       .  A
C721        C726   1.407       .  A
C721        H727   1.083       .  S
C722        C723   1.405       .  A
C723        C724   1.400       .  A
C723        H728   1.083       .  S
C724        C725   1.407       .  A
C724        H729   1.084       .  S
C725        C726   1.407       .  A
C726        H730   1.083       .  S
C731        C732   1.405       .  A
C731       C2096   1.401       .  A
C731        H737   1.083       .  S
C732        C733   1.408       .  A
C733        C734   1.410       .  A
C733        H738   1.083       .  S
C734       C2095   1.408       .  A
C734        H739   1.083       .  S
C735        C736   1.407       .  A
C735       C2094   1.408       .  A
C736       C2091   1.401       .  A
C736        H740   1.084       .  S
C741        C742   1.405       .  A
C741        C746   1.398       .  A
C741       H3467   1.082       .  S
C742       C1965   1.476       .  S
C742       C2103   1.403       .  A
C743       C2102   1.403       .  A
C743       C2104   1.397       .  A
C743        H748   1.083   1_565  S
C744        C745   1.405       .  A
C744       C2103   1.397       .  A
C744        H749   1.082       .  S
C745        C746   1.404       .  A
C746        H750   1.083       .  S
H747       C3461   1.082   1_455  S
C751        C752   1.404       .  A
C751        C756   1.399       .  A
C751        H757   1.083       .  S
C752        C753   1.405       .  A
C753        C754   1.397       .  A
C753        H758   1.082       .  S
C754        C755   1.403       .  A
C754        H759   1.083       .  S
C755        C756   1.405       .  A
C756        H760   1.082       .  S
C761        C762   1.400       .  A
C761        C766   1.398       .  A
C761        H767   1.082       .  S
C762       C1955   1.478       .  S
C762       C2123   1.410       .  A
C763       C2122   1.410       .  A
C763       C2124   1.397       .  A
C763        H768   1.083   1_565  S
C764        C765   1.399       .  A
C764       C2123   1.397       .  A
C764        H769   1.082       .  S
C765        C766   1.410       .  A
C766        H770   1.083       .  S
C771        C772   1.400       .  A
C771        C776   1.399       .  A
C771       H3497   1.082       .  S
C772        C773   1.410       .  A
C773        C774   1.397       .  A
C773        H778   1.083       .  S
C774        C775   1.399       .  A
C774        H779   1.082       .  S
C775        C776   1.410       .  A
C776        H780   1.083       .  S
H777       C3491   1.082   1_455  S
C781        C782   1.407       .  A
C781        C786   1.401       .  A
C781        H787   1.084       .  S
C782        C783   1.409       .  A
C783        C784   1.411       .  A
C783        H788   1.083       .  S
C784        C785   1.409       .  A
C784        H789   1.083       .  S
C785        C786   1.405       .  A
C786        H790   1.083       .  S
C791        C792   1.402       .  A
C791        C796   1.397       .  A
C791        H797   1.083       .  S
C792        C793   1.406       .  A
C793        C794   1.395       .  A
C793        H798   1.082       .  S
C794        C795   1.401       .  A
C794        H799   1.083       .  S
C795        C796   1.406       .  A
C796        H800   1.083       .  S
C801        C802   1.407       .  A
C801        C806   1.397       .  A
C801        H807   1.083       .  S
C802        C803   1.402       .  A
C803        C804   1.396       .  A
C803        H808   1.083       .  S
C804        C805   1.406       .  A
C804        H809   1.082       .  S
C805        C806   1.402       .  A
C806        H810   1.083       .  S
C811        C812   1.409       .  A
C811        C816   1.396       .  A
C811        H817   1.083       .  S
C812        C813   1.400       .  A
C813        C814   1.397       .  A
C813        H818   1.082       .  S
C814        C815   1.409       .  A
C814        H819   1.083       .  S
C815        C816   1.400       .  A
C816        H820   1.082       .  S
C821        C822   1.409       .  A
C821        C826   1.396       .  A
C821        H827   1.083       .  S
C822        C823   1.400       .  A
C823        C824   1.397       .  A
C823        H828   1.082       .  S
C824        C825   1.409       .  A
C824        H829   1.083       .  S
C825        C826   1.400       .  A
C826        H830   1.082       .  S
C831        C832   1.405       .  A
C831        C836   1.400       .  A
C831        H837   1.083   1_655  S
C832       C3553   1.407       .  A
C833        C834   1.407       .  A
C833       C3552   1.407       .  A
C833        H838   1.083       .  S
C834       C3555   1.407       .  A
C834        H839   1.083       .  S
C835        C836   1.407       .  A
C835       C3554   1.407       .  A
C836        H840   1.084       .  S
C841        C842   1.399       .  A
C841        C846   1.395       .  A
C841        H847   1.083       .  S
C842        C843   1.405       .  A
C843        C844   1.392       .  A
C843        H848   1.083       .  S
C844        C845   1.399       .  A
C844        H849   1.083       .  S
C845        C846   1.405       .  A
C846        H850   1.083       .  S
C851        C852   1.405       .  A
C851        C856   1.403       .  A
C851        H857   1.082       .  S
C852        C853   1.406       .  A
C853        C854   1.402       .  A
C853        H858   1.083       .  S
C854        C855   1.404       .  A
C854        H859   1.083       .  S
C855        C856   1.406       .  A
C856        H860   1.083       .  S
C861        C862   1.400       .  A
C861        C866   1.396       .  A
C861        H867   1.083       .  S
C862        C863   1.405       .  A
C863        C864   1.393       .  A
C863        H868   1.083       .  S
C864        C865   1.399       .  A
C864        H869   1.083       .  S
C865        C866   1.405       .  A
C866        H870   1.083       .  S
C871        C872   1.405       .  A
C871        C876   1.403       .  A
C871       H3597   1.082   1_455  S
C872        C873   1.406       .  A
C873        C874   1.403       .  A
C873        H878   1.083       .  S
C874        C875   1.405       .  A
C874        H879   1.083       .  S
C875        C876   1.406       .  A
C876        H880   1.083       .  S
H877       C3591   1.082       .  S
C881        C882   1.405       .  A
C881        C886   1.397       .  A
C881        H887   1.082       .  S
C882        C883   1.404       .  A
C883        C884   1.399       .  A
C883        H888   1.083       .  S
C884        C885   1.406       .  A
C884        H889   1.082       .  S
C885        C886   1.403       .  A
C886        H890   1.083       .  S
C891        C892   1.404       .  A
C891        C896   1.398       .  A
C891        H897   1.083       .  S
C892        C893   1.406       .  A
C893        C894   1.399       .  A
C893        H898   1.082       .  S
C894        C895   1.404       .  A
C894        H899   1.083       .  S
C895        C896   1.406       .  A
C896        H900   1.082       .  S
C901        C902   1.399       .  A
C901        C906   1.398       .  A
C901        H907   1.082       .  S
C902       C3180   1.476       .  S
C902        C903   1.410       .  A
C903        C904   1.396       .  A
C903        H908   1.083       .  S
C904        C905   1.399       .  A
C904        H909   1.083       .  S
C905        C906   1.410       .  A
C906        H910   1.083       .  S
C911        C912   1.409       .  A
C911        C916   1.397       .  A
C911        H917   1.083       .  S
C912        C913   1.399       .  A
C913        C914   1.396       .  A
C913        H918   1.083       .  S
C914        C915   1.409       .  A
C914        H919   1.083       .  S
C915        C916   1.400       .  A
C916        H920   1.082       .  S
C921        C922   1.404       .  A
C921        C926   1.398       .  A
C921        H927   1.084       .  S
C922        C923   1.409       .  A
C923        C924   1.403       .  A
C923        H928   1.084       .  S
C924        C925   1.405       .  A
C924        H929   1.083       .  S
C925        C926   1.407       .  A
C926        H930   1.084       .  S
C931        C932   1.405       .  A
C931        C936   1.405       .  A
C931        H937   1.083       .  S
C932        C933   1.409       .  A
C933        C934   1.402       .  A
C933        H938   1.083       .  S
C934        C935   1.404       .  A
C934        H939   1.083       .  S
C935        C936   1.410       .  A
C936        H940   1.083       .  S
C941        C946   1.404       .  A
C941       C3662   1.410       .  A
C941        H947   1.084       .  S
C942        C943   1.404       .  A
C942       C3661   1.410   1_655  A
C943        C944   1.400   1_655  A
C943        H948   1.084       .  S
C944        C945   1.408       .  A
C944       H2309   1.084   1_445  S
C945       C1819   1.472   1_545  S
C945       C3666   1.405       .  A
C946       C3665   1.405       .  A
C946        H950   1.083       .  S
H949       C2304   1.084   1_655  S
C951        C952   1.405       .  A
C951        C956   1.397       .  A
C951       H3677   1.082       .  S
C952        C953   1.403       .  A
C953        C954   1.396       .  A
C953        H958   1.083       .  S
C954        C955   1.405       .  A
C954        H959   1.082       .  S
C955        C956   1.403       .  A
C956        H960   1.083       .  S
H957       C3671   1.082   1_455  S
C961        C962   1.403       .  A
C961        C966   1.398       .  A
C961        H967   1.083       .  S
C962        C963   1.405       .  A
C963        C964   1.395       .  A
C963        H968   1.082       .  S
C964        C965   1.403       .  A
C964       H2329   1.083       .  S
C965        C966   1.405       .  A
C966        H970   1.082       .  S
H969       C2324   1.083   1_545  S
C971        C972   1.411       .  A
C971        C976   1.398       .  A
C971       H2337   1.083       .  S
C972        C973   1.399       .  A
C973        C974   1.398       .  A
C973       H3698   1.082       .  S
C974        C975   1.410       .  A
C974        H979   1.083       .  S
C975        C976   1.399       .  A
C976        H980   1.083       .  S
H977       C2331   1.083   1_545  S
H978       C3693   1.082   1_455  S
C981        C982   1.399       .  A
C981        C986   1.399       .  A
C981        H987   1.083       .  S
C982        C983   1.411       .  A
C983        C984   1.399       .  A
C983        H988   1.083       .  S
C984        C985   1.399       .  A
C984        H989   1.082       .  S
C985        C986   1.411       .  A
C986        H990   1.083       .  S
C991        C992   1.405       .  A
C991        C996   1.402       .  A
C991        H997   1.083       .  S
C992        C993   1.408       .  A
C993        C994   1.400       .  A
C993        H998   1.083       .  S
C994        C995   1.404       .  A
C994        H999   1.083       .  S
C995        C996   1.408       .  A
C996       H1000   1.083       .  S
C1001      C1002   1.405       .  A
C1001      C1006   1.403       .  A
C1001      H1007   1.082       .  S
C1002      C1003   1.407       .  A
C1003      C1004   1.405       .  A
C1003      H1008   1.083       .  S
C1004      C1005   1.406       .  A
C1004      H3729   1.082       .  S
C1005      C1006   1.407       .  A
C1006      H1010   1.083       .  S
H1009      C3724   1.082   1_455  S
C1011      C1012   1.405       .  A
C1011      C1016   1.395       .  A
C1011      H1017   1.083       .  S
C1012      C1013   1.398       .  A
C1013      C1014   1.392       .  A
C1013      H1018   1.083       .  S
C1014      C1015   1.405       .  A
C1014      H1019   1.083       .  S
C1015      C1016   1.400       .  A
C1016      H1020   1.083       .  S
C1021      C1022   1.408       .  A
C1021      C1026   1.406       .  A
C1021      H1027   1.083       .  S
C1022      C1023   1.405       .  A
C1023      C1024   1.403       .  A
C1023      H1028   1.082       .  S
C1024      C1025   1.407       .  A
C1024      H1029   1.083       .  S
C1025      C1026   1.406       .  A
C1026      H1030   1.082       .  S
C1031      C1032   1.400       .  A
C1031      C1036   1.395       .  A
C1031      H3757   1.083       .  S
C1032      C3021   1.464       .  S
C1032      C1033   1.405       .  A
C1033      C1034   1.392       .  A
C1033      H1038   1.083       .  S
C1034      C1035   1.399       .  A
C1034      H1039   1.083       .  S
C1035      C1036   1.405       .  A
C1036      H1040   1.083       .  S
H1037      C3751   1.083   1_455  S
C1041      C1042   1.406       .  A
C1041      C2406   1.399       .  A
C1041      H3767   1.082       .  S
C1042      C3000   1.477       .  S
C1042      C1043   1.404       .  A
C1043      C1044   1.397       .  A
C1043      H1048   1.083       .  S
C1044      C2405   1.405       .  A
C1044      H1049   1.082       .  S
C1045      C1046   1.404       .  A
C1045      C2404   1.405       .  A
C1046      C2401   1.399       .  A
C1046      H1050   1.083   1_565  S
H1047      C3761   1.082       .  S
C1051      C1052   1.405       .  A
C1051      C1056   1.397       .  A
C1051      H1057   1.082       .  S
C1052      C1053   1.404       .  A
C1053      C1054   1.397       .  A
C1053      H1058   1.083       .  S
C1054      C1055   1.405       .  A
C1054      H1059   1.082       .  S
C1055      C1056   1.403       .  A
C1056      H1060   1.083       .  S
C1061      C1062   1.399       .  A
C1061      C1066   1.398       .  A
C1061      H1067   1.082       .  S
C1062      C1063   1.410       .  A
C1063      C1064   1.396       .  A
C1063      H1068   1.083       .  S
C1064      C1065   1.398       .  A
C1064      H3789   1.083       .  S
C1065      C3022   1.475       .  S
C1065      C1066   1.410       .  A
C1066      H1070   1.083       .  S
H1069      C3784   1.083       .  S
C1071      C1072   1.410       .  A
C1071      C1076   1.397       .  A
C1071      H1077   1.083       .  S
C1072      C1073   1.399       .  A
C1073      C2434   1.398       .  A
C1073      H2438   1.082       .  S
C1074      C1075   1.410       .  A
C1074      C2433   1.398       .  A
C1074      H1079   1.083   1_565  S
C1075      C2436   1.399       .  A
C1076      C2435   1.399       .  A
C1076      H1080   1.083       .  S
H1078      C2433   1.082       .  S
C1081      C1082   1.406       .  A
C1081      C1086   1.404       .  A
C1081      H1087   1.083       .  S
C1082      C1630   1.491   1_545  S
C1082      C1083   1.409       .  A
C1083      C1084   1.403   1_554  A
C1083      H2448   1.083   1_544  S
C1084      C1085   1.405       .  A
C1084      H1089   1.083       .  S
C1085      C1086   1.409   1_556  A
C1086      H1090   1.083       .  S
H1088      C2443   1.083   1_556  S
C1091      C1092   1.408   1_556  A
C1091      C1096   1.401       .  A
C1091      H1097   1.084       .  S
C1092      C1093   1.405       .  A
C1093      C1094   1.401       .  A
C1093      H1098   1.084       .  S
C1094      C1095   1.409   1_554  A
C1094      H1099   1.084       .  S
C1095      C1096   1.405       .  A
C1096      H1100   1.084       .  S
C1101      C1102   1.409   1_556  A
C1101      C1106   1.402       .  A
C1101      H1107   1.084       .  S
C1102      C1103   1.404       .  A
C1103      C1104   1.399       .  A
C1103      H1108   1.084       .  S
C1104      C1105   1.408   1_554  A
C1104      H1109   1.084       .  S
C1105      C1106   1.405       .  A
C1106      H1110   1.083       .  S
C1111      C1112   1.404       .  A
C1111      C1116   1.398       .  A
C1111      H1117   1.083       .  S
C1112      C1113   1.406       .  A
C1113      C1114   1.399       .  A
C1113      H1118   1.082       .  S
C1114      C1115   1.405       .  A
C1114      H1119   1.083       .  S
C1115      C1116   1.405       .  A
C1116      H1120   1.082       .  S
C1121      C1122   1.405       .  A
C1121      C1126   1.397       .  A
C1121      H1127   1.082       .  S
C1122      C1123   1.404       .  A
C1123      C1124   1.398       .  A
C1123      H1128   1.083       .  S
C1124      C1125   1.405       .  A
C1124      H1129   1.082       .  S
C1125      C1126   1.404       .  A
C1126      H1130   1.083       .  S
C1131      C1132   1.399       .  A
C1131      C1136   1.398       .  A
C1131      H1137   1.082       .  S
C1132      C1133   1.411       .  A
C1133      C1134   1.398       .  A
C1133      H1138   1.083       .  S
C1134      C1135   1.399       .  A
C1134      H1139   1.083       .  S
C1135      C1136   1.411       .  A
C1136      H1140   1.083       .  S
C1141      C1142   1.399       .  A
C1141      C1146   1.400       .  A
C1141      H1147   1.082       .  S
C1142      C1143   1.411       .  A
C1143      C1144   1.399       .  A
C1143      H1148   1.083       .  S
C1144      C1145   1.399       .  A
C1144      H1149   1.083       .  S
C1145      C1146   1.411       .  A
C1146      H1150   1.083       .  S
C1151      C1152   1.406       .  A
C1151      C1156   1.405       .  A
C1151      H1157   1.083       .  S
C1152      C3873   1.410   1_455  A
C1153      C1154   1.404   1_554  A
C1153      C3872   1.410       .  A
C1153      H1158   1.083   1_554  S
C1154      C3875   1.406       .  A
C1154      H1159   1.083       .  S
C1155      C1156   1.410   1_556  A
C1155      C3874   1.406   1_455  A
C1156      H1160   1.083       .  S
C1161      C1162   1.407       .  A
C1161      C1166   1.398       .  A
C1161      H1167   1.083       .  S
C1162      C1163   1.400       .  A
C1163      C1164   1.392       .  A
C1163      H1168   1.083       .  S
C1164      C1165   1.406       .  A
C1164      H1169   1.083       .  S
C1165      C1166   1.402       .  A
C1166      H1170   1.083       .  S
C1171      C1172   1.409       .  A
C1171      C1176   1.400       .  A
C1171      H1177   1.083       .  S
C1172      C1173   1.405       .  A
C1173      C1174   1.408       .  A
C1173      H1178   1.082       .  S
C1174      C1175   1.411       .  A
C1174      H1179   1.083       .  S
C1175      C1176   1.402       .  A
C1176      H1180   1.082       .  S
C1181      C1182   1.397       .  A
C1181      C1186   1.390       .  A
C1181      H1187   1.083       .  S
C1182      C1183   1.407       .  A
C1183      C1184   1.398       .  A
C1183      H1188   1.083       .  S
C1184      C1185   1.400       .  A
C1184      H1189   1.083       .  S
C1185      C1186   1.405       .  A
C1186      H1190   1.083       .  S
C1191      C1192   1.406       .  A
C1191      C1196   1.403       .  A
C1191      H1197   1.083       .  S
C1192      C1193   1.404       .  A
C1193      C1194   1.401       .  A
C1193      H1198   1.083       .  S
C1194      C1195   1.406       .  A
C1194      H1199   1.083       .  S
C1195      C1196   1.405       .  A
C1196      H1200   1.082       .  S
C1201      C1202   1.405       .  A
C1201      C1206   1.404       .  A
C1201      H1207   1.083       .  S
C1202      C1203   1.407       .  A
C1203      C1204   1.404       .  A
C1203      H1208   1.083       .  S
C1204      C1205   1.405       .  A
C1204      H1209   1.083       .  S
C1205      C1206   1.407       .  A
C1206      H1210   1.082       .  S
C1211      C1212   1.404       .  A
C1211      C1216   1.401       .  A
C1211      H1217   1.083       .  S
C1212      C1213   1.404       .  A
C1213      C1214   1.398       .  A
C1213      H1218   1.082       .  S
C1214      C1215   1.404       .  A
C1214      H1219   1.083       .  S
C1215      C1216   1.405       .  A
C1216      H1220   1.083       .  S
C1221      C1222   1.397       .  A
C1221      C1226   1.392       .  A
C1221      H1227   1.082       .  S
C1222      C1223   1.408       .  A
C1223      C1224   1.396       .  A
C1223      H1228   1.083       .  S
C1224      C1225   1.398       .  A
C1224      H1229   1.083       .  S
C1225      C1226   1.406       .  A
C1226      H1230   1.083       .  S
C1231      C1232   1.409       .  A
C1231      C1236   1.396       .  A
C1231      H1237   1.084       .  S
C1232      C1233   1.397       .  A
C1233      C1234   1.398       .  A
C1233      H1238   1.082       .  S
C1234      C1235   1.410       .  A
C1234      H1239   1.083       .  S
C1235      C1236   1.398       .  A
C1236      H1240   1.083       .  S
C1241      C1242   1.401       .  A
C1241      C1246   1.393       .  A
C1241      H1247   1.083       .  S
C1242      C1243   1.403       .  A
C1243      C1244   1.393       .  A
C1243      H1248   1.084       .  S
C1244      C1245   1.400       .  A
C1244      H1249   1.083       .  S
C1245      C1246   1.402       .  A
C1246      H1250   1.084       .  S
C1251      C1252   1.406       .  A
C1251      C1256   1.394       .  A
C1251      H1257   1.083       .  S
C1252      C1253   1.405       .  A
C1253      C1254   1.405       .  A
C1253      H1258   1.083       .  S
C1254      C1255   1.406       .  A
C1254      H1259   1.083       .  S
C1255      C1256   1.399       .  A
C1256      H1260   1.084       .  S
C1261      C1262   1.395       .  A
C1261      C1266   1.396       .  A
C1261      H1267   1.083       .  S
C1262      C1263   1.417       .  A
C1263      C1264   1.410       .  A
C1263      H1268   1.075       .  S
C1264      C1265   1.399       .  A
C1264      H1269   1.082       .  S
C1265      C1266   1.416       .  A
C1266      H1270   1.082       .  S
C1271      C1272   1.399       .  A
C1271      C1276   1.410       .  A
C1271      H1277   1.083       .  S
C1272      C2797   1.495       .  S
C1272      C3993   1.416       .  A
C1273      C3992   1.416       .  A
C1273      C3994   1.398       .  A
C1273      H1278   1.083       .  S
C1274      C1275   1.395       .  A
C1274      C3993   1.398       .  A
C1274      H1279   1.084       .  S
C1275      C1276   1.417       .  A
C1276      H1280   1.080       .  S
C1281      C1282   1.405       .  A
C1281      C1286   1.403       .  A
C1281      H1287   1.083       .  S
C1282      C1283   1.407       .  A
C1283      C1284   1.407       .  A
C1283      H1288   1.083       .  S
C1284      C1285   1.406       .  A
C1284      H4009   1.082       .  S
C1285      C1286   1.407       .  A
C1286      H1290   1.083       .  S
H1289      C4004   1.082   1_455  S
C1291      C1292   1.396       .  A
C1291      C1296   1.386       .  A
C1291      H1297   1.083       .  S
C1292      C1293   1.406       .  A
C1293      C1294   1.395       .  A
C1293      H1298   1.083       .  S
C1294      C1295   1.398       .  A
C1294      H1299   1.083       .  S
C1295      C1296   1.405       .  A
C1296      H1300   1.083       .  S
C1301      C1302   1.407       .  A
C1301      C1306   1.405       .  A
C1301      H1307   1.083       .  S
C1302      C1303   1.407       .  A
C1303      C1304   1.401       .  A
C1303      H1308   1.083       .  S
C1304      C1305   1.406       .  A
C1304      H1309   1.083       .  S
C1305      C1306   1.408       .  A
C1306      H1310   1.083       .  S
C1311      C1312   1.408       .  A
C1311      C1316   1.397       .  A
C1311      H1317   1.083       .  S
C1312      C1313   1.402       .  A
C1313      C1314   1.400       .  A
C1313      H1318   1.083       .  S
C1314      C1315   1.407       .  A
C1314      H4039   1.083       .  S
C1315      C1316   1.400       .  A
C1316      H1320   1.083       .  S
H1319      C4034   1.083       .  S
C1321      C1322   1.405       .  A
C1321      C1326   1.400       .  A
C1321      H1327   1.083       .  S
C1322      C1323   1.401       .  A
C1323      C1324   1.398       .  A
C1323      H1328   1.083       .  S
C1324      C1325   1.406       .  A
C1324      H1329   1.083       .  S
C1325      C1326   1.404       .  A
C1326      H1330   1.083       .  S
C1331      C1332   1.403       .  A
C1331      C1336   1.398       .  A
C1331      H1337   1.083       .  S
C1332      C1333   1.407       .  A
C1333      C1334   1.405       .  A
C1333      H1338   1.083       .  S
C1334      C1335   1.405       .  A
C1334      H1339   1.083       .  S
C1335      C1336   1.405       .  A
C1336      H1340   1.083       .  S
C1341      C1342   1.406       .  A
C1341      C1346   1.398       .  A
C1341      H1347   1.083       .  S
C1342      C1343   1.405       .  A
C1343      C1344   1.404       .  A
C1343      H1348   1.082       .  S
C1344      C1345   1.406       .  A
C1344      H1349   1.083       .  S
C1345      C1346   1.403       .  A
C1346      H1350   1.083       .  S
C1351      C1352   1.408       .  A
C1351      C2716   1.408   1_545  A
C1351      H1357   1.083       .  S
C1352      C1353   1.404       .  A
C1353      C1354   1.397       .  A
C1353      H1358   1.084       .  S
C1354      C2715   1.406   1_545  A
C1354      H1359   1.083       .  S
C1355      C1356   1.406       .  A
C1355      C2714   1.406       .  A
C1356      C2711   1.408       .  A
C1356      H1360   1.083       .  S
N1361      N1362   1.321       .  A
N1361      N1367   1.315       .  A
N1361     Mn1390   2.189       .  S
N1362      C1369   1.352       .  A
N1363      N1365   1.311       .  A
N1363     Mn1379   2.181       .  S
N1364      C1370   1.351       .  A
N1365      N1366   1.323       .  A
N1365     Mn1390   2.207       .  S
N1367      N1368   1.325       .  A
N1367     Mn1379   2.217       .  S
N1368      C1369   1.355       .  A
C1369      C2662   1.488       .  S
C1370      C2685   1.479       .  S
N1371      N1377   1.320       .  A
N1371     Mn1401   2.196       .  S
N1372      C1380   1.350   1_545  A
N1373      N1374   1.308       .  A
N1373      N1375   1.315       .  A
N1373     Mn1379   2.144       .  S
N1374      C1381   1.336       .  A
N1375      N1376   1.333       .  A
N1375     Mn1401   2.248       .  S
N1376      C1381   1.364       .  A
N1377     Mn1379   2.244       .  S
N1378      C1380   1.359       .  A
Mn1379    Cl1403   2.519       .  S
C1380      C2702   1.481       .  S
C1381      C2712   1.473       .  S
N1382      N1383   1.315       .  A
N1382      N1388   1.317       .  A
N1382     Mn1390   2.173       .  S
N1383      C1391   1.347       .  A
N1384      N1386   1.314       .  A
N1384      N1385   1.324       .  A
N1384     Mn1402   2.212       .  S
N1385      C1392   1.355       .  A
N1386      N1387   1.320       .  A
N1386     Mn1390   2.194       .  S
N1387      C1392   1.351       .  A
N1388      N1389   1.317       .  A
N1388     Mn1402   2.202       .  S
N1389      C1391   1.353       .  A
Mn1390    Cl1403   2.560       .  S
C1391      C2652   1.457       .  S
C1392      C2692   1.480       .  S
N1393      N1394   1.324       .  A
N1393      N1399   1.322       .  A
N1393     Mn1401   2.233       .  S
N1394      C1404   1.358       .  A
N1395      N1396   1.322       .  A
N1395      N1397   1.317       .  A
N1395     Mn1402   2.205       .  S
N1396      C1405   1.353       .  A
N1397      N1398   1.325       .  A
N1397     Mn1401   2.228       .  S
N1398      C1405   1.356       .  A
N1399      N1400   1.316       .  A
N1399     Mn1402   2.201       .  S
N1400      C1404   1.348       .  A
Mn1401    Cl1403   2.565       .  S
Mn1402    Cl1403   2.525       .  S
C1404      C2672   1.477       .  S
C1405      C2642   1.488       .  S
N1406      N4127   1.322       .  A
N1406      N1412   1.310       .  A
N1406     Mn1435   2.207       .  S
N1407      N4126   1.322       .  A
N1407      C1414   1.354       .  A
N1408      N1410   1.318       .  A
N1408      N1409   1.320       .  A
N1408     Mn1424   2.204       .  S
N1409      C1415   1.352       .  A
N1410      N1411   1.321       .  A
N1410     Mn1435   2.215       .  S
N1411      C1415   1.355       .  A
N1412      N4133   1.321       .  A
N1412     Mn1424   2.183       .  S
N1413      N4132   1.321       .  A
N1413      C1414   1.354       .  A
C1414      C2705   1.479       .  S
C1415      C2682   1.474       .  S
N1416      N1422   1.316       .  A
N1416      N1417   1.327       .  A
N1416     Mn1446   2.227       .  S
N1417      C1425   1.360       .  A
N1418      N4139   1.316   1_455  A
N1418      N1420   1.315       .  A
N1418     Mn1424   2.188       .  S
N1419      N4138   1.316       .  A
N1419      C1426   1.350       .  A
N1420      N4141   1.319   1_455  A
N1420     Mn1446   2.190       .  S
N1421      N4140   1.319       .  A
N1421      C1426   1.351       .  A
N1422      N1423   1.315       .  A
N1422     Mn1424   2.186       .  S
N1423      C1425   1.348       .  A
Mn1424    Cl1448   2.532       .  S
C1425      C2612   1.480       .  S
C1426      C2602   1.461       .  S
N1427      N1428   1.334       .  A
N1427      N1433   1.318       .  A
N1427     Mn1435   2.283       .  S
N1428      C1436   1.362       .  A
N1429      N1431   1.316       .  A
N1429      N1430   1.332       .  A
N1429     Mn1447   2.274       .  S
N1430      C4157   1.362       .  A
N1431      N1432   1.311       .  A
N1431     Mn1435   2.161       .  S
N1432      C4157   1.336       .  A
N1433      N1434   1.310       .  A
N1433     Mn1447   2.127       .  S
N1434      C1436   1.335       .  A
Mn1435    Cl1448   2.507       .  S
C1436      C2622   1.479       .  S
C1437      N4150   1.362       .  A
C1437      N4152   1.336       .  A
C1437      C5352   1.495       .  S
N1438      N4159   1.323       .  A
N1438      N1444   1.319       .  A
N1438     Mn1446   2.229       .  S
N1439      N4158   1.323       .  A
N1439      C1449   1.355       .  A
N1440      N1441   1.320       .  A
N1440      N1442   1.315       .  A
N1440     Mn1447   2.209       .  S
N1441      C1450   1.352       .  A
N1442      N1443   1.324       .  A
N1442     Mn1446   2.204       .  S
N1443      C1450   1.356       .  A
N1444      N4165   1.319       .  A
N1444     Mn1447   2.191       .  S
N1445      N4164   1.319       .  A
N1445      C1449   1.350       .  A
Mn1446    Cl1448   2.551       .  S
Mn1447    Cl1448   2.516       .  S
C1449      C2675   1.474       .  S
C1450      C2695   1.481       .  S
N1451      N1452   1.334       .  A
N1451      N4177   1.317   1_455  A
N1451     Mn1480   2.245       .  S
N1452      C1459   1.361       .  A
N1453      N4175   1.320       .  A
N1453      N1454   1.324       .  A
N1453     Mn1469   2.240       .  S
N1454      C4180   1.357       .  A
N1455      N4173   1.320   1_455  A
N1455      N1456   1.314       .  A
N1455     Mn1480   2.171       .  S
N1456      C1460   1.345       .  A
N1457      N4171   1.317       .  A
N1457      N1458   1.311       .  A
N1457     Mn1469   2.153       .  S
N1458      C4179   1.334       .  A
C1459      N4178   1.334       .  A
C1459      C2635   1.480       .  S
C1460      N4174   1.357       .  A
C1460      C2595   1.472       .  S
N1461      N1467   1.309       .  A
N1461      N1462   1.323       .  A
N1461     Mn1491   2.192       .  S
N1462      C1470   1.355       .  A
N1463      N1464   1.327       .  A
N1463      N1465   1.316       .  A
N1463     Mn1469   2.214       .  S
N1464      C1471   1.353       .  A
N1465      N1466   1.320       .  A
N1465     Mn1491   2.187       .  S
N1466      C1471   1.349       .  A
N1467      N1468   1.320       .  A
N1467     Mn1469   2.188       .  S
N1468      C1470   1.352       .  A
Mn1469    Cl1493   2.495       .  S
C1470      C2572   1.476       .  S
C1471      C2715   1.488       .  S
N1472      N1473   1.323       .  A
N1472      N4198   1.315   1_455  A
N1472     Mn1480   2.213       .  S
N1473      C1481   1.354       .  A
N1474      N1475   1.321   1_655  A
N1474     Mn2852   2.223       .  S
N1475      C1482   1.352       .  A
N1476     Mn1480   2.238       .  S
N1477      C1482   1.358       .  A
N1478      N4192   1.315       .  A
N1478      N4199   1.322       .  A
N1478     Mn1492   2.198       .  S
N1479      N4198   1.322   1_455  A
N1479      C1481   1.353       .  A
Mn1480    Cl4213   2.565   1_455  S
C1481      C2552   1.482       .  S
C1482      C2562   1.486       .  S
N1483      N1484   1.315       .  A
N1483      N1489   1.313       .  A
N1484      C1494   1.345       .  A
N1485      N1486   1.319       .  A
N1485      N1487   1.319       .  A
N1485     Mn1492   2.222       .  S
N1486      C1495   1.354       .  A
N1487      N1488   1.317       .  A
N1487     Mn1491   2.179       .  S
N1488      C1495   1.348       .  A
N1489      N1490   1.322       .  A
N1490      C1494   1.355       .  A
Mn1491    Cl1493   2.556       .  S
Mn1492     N2834   2.223       .  S
Mn1492    Cl1493   2.523       .  S
Cl1493    Mn4200   2.565       .  S
C1494      C2582   1.465       .  S
C1495      C2542   1.464       .  S
N1496      N1497   1.335       .  A
N1496      N1502   1.316       .  A
N1496     Mn1525   2.241       .  S
N1497      C1504   1.361       .  A
N1498      N1500   1.317       .  A
N1498      N1499   1.327       .  A
N1498     Mn1514   2.254       .  S
N1499      C1505   1.361       .  A
N1500      N1501   1.312       .  A
N1500     Mn1525   2.147       .  S
N1501      C1505   1.343       .  A
N1502      N1503   1.310       .  A
N1502     Mn1514   2.172       .  S
N1503      C1504   1.335       .  A
C1504      C2625   1.495       .  S
C1505      C2592   1.471       .  S
N1506      N1512   1.311       .  A
N1506      N1507   1.321       .  A
N1506     Mn1536   2.196       .  S
N1507      C1515   1.354       .  A
N1508      N1509   1.323       .  A
N1508      N1510   1.314       .  A
N1508     Mn1514   2.207       .  S
N1509      C1516   1.353       .  A
N1510      N1511   1.324       .  A
N1510     Mn1536   2.198       .  S
N1511      C1516   1.353       .  A
N1512      N1513   1.320       .  A
N1512     Mn1514   2.187       .  S
N1513      C1515   1.353       .  A
Mn1514    Cl1538   2.496       .  S
C1515      C2575   1.477       .  S
C1516      C2665   1.489       .  S
N1517      N1518   1.318       .  A
N1517      N1523   1.315       .  A
N1517     Mn1525   2.186       .  S
N1518      C1526   1.348       .  A
N1519      N1521   1.324       .  A
N1519      N1520   1.322       .  A
N1519     Mn1537   2.237       .  S
N1520      C1527   1.354       .  A
N1521      N1522   1.325       .  A
N1521     Mn1525   2.235       .  S
N1522      C1527   1.357       .  A
N1523      N1524   1.320       .  A
N1523     Mn1537   2.194       .  S
N1524      C1526   1.354       .  A
Mn1525    Cl1538   2.555       .  S
C1526      C2522   1.471       .  S
C1527      C2565   1.487       .  S
N1528      N1529   1.312       .  A
N1528      N1534   1.313       .  A
N1528     Mn1536   2.161       .  S
N1529      C1539   1.344       .  A
N1530      N1531   1.329       .  A
N1530      N1532   1.319       .  A
N1530     Mn1537   2.258       .  S
N1531      C1540   1.363       .  A
N1532      N1533   1.316       .  A
N1532     Mn1536   2.189       .  S
N1533      C1540   1.349       .  A
N1534      N1535   1.323       .  A
N1534     Mn1537   2.203       .  S
N1535      C1539   1.356       .  A
Mn1536    Cl1538   2.543       .  S
Mn1537    Cl1538   2.540       .  S
C1539      C2585   1.464       .  S
C1540      C2532   1.491       .  S
N1541      N1542   1.322       .  A
N1541      N1547   1.317       .  A
N1541     Mn1570   2.208       .  S
N1542      C1549   1.352       .  A
N1543      N1545   1.321       .  A
N1543      N1544   1.319       .  A
N1543     Mn1559   2.214       .  S
N1544      C1550   1.352       .  A
N1545      N1546   1.320       .  A
N1545     Mn1570   2.211       .  S
N1546      C1550   1.354       .  A
N1547      N1548   1.325       .  A
N1547     Mn1559   2.231       .  S
N1548      C1549   1.359       .  A
C1549      C2535   1.491       .  S
C1550      C2482   1.477       .  S
N1551      N4277   1.314   1_455  A
N1551      N1552   1.314       .  A
N1551     Mn1581   2.161       .  S
N1552      C1560   1.344       .  A
N1553      N1554   1.323       .  A
N1553      N4275   1.318       .  A
N1553     Mn1559   2.223       .  S
N1554      C4281   1.358       .  A
N1555      N4273   1.318   1_455  A
N1555      N1556   1.313       .  A
N1555     Mn1581   2.179       .  S
N1556      C1561   1.347       .  A
N1557      N4271   1.314       .  A
N1557      N1558   1.328       .  A
N1557     Mn1559   2.236       .  S
N1558      C4280   1.362       .  A
Mn1559    Cl1583   2.544       .  S
C1560      N4278   1.362       .  A
C1560      C2505   1.479       .  S
C1561      N4274   1.358       .  A
C1561      C2525   1.471       .  S
N1562      N1563   1.331       .  A
N1562      N1568   1.310       .  A
N1562     Mn1570   2.242       .  S
N1563      C1571   1.368       .  A
N1564      N1566   1.316       .  A
N1564      N1565   1.328       .  A
N1564     Mn1582   2.258       .  S
N1565      C1572   1.364       .  A
N1566      N1567   1.313       .  A
N1566     Mn1570   2.150       .  S
N1567      C1572   1.344       .  A
N1568      N1569   1.304       .  A
N1568     Mn1582   2.140       .  S
N1569      C1571   1.330       .  A
Mn1570    Cl1583   2.560       .  S
C1571      C2462   1.467       .  S
C1572      C2492   1.479       .  S
N1573      N1574   1.321       .  A
N1573      N4299   1.310       .  A
N1573     Mn1581   2.206       .  S
N1574      C1584   1.355       .  A
N1575      N1576   1.322       .  A
N1575      N4297   1.313       .  A
N1575     Mn1582   2.200       .  S
N1576      C4305   1.350       .  A
N1577      N4295   1.313       .  A
N1577      N1578   1.327       .  A
N1577     Mn1581   2.206       .  S
N1578      C1585   1.356       .  A
N1579      N4293   1.310       .  A
N1579      N1580   1.320       .  A
N1579     Mn1582   2.175       .  S
N1580      C4304   1.353       .  A
Mn1581    Cl4303   2.533   1_455  S
Mn1582    Cl1583   2.505       .  S
Cl1583    Mn4301   2.533       .  S
C1584      N4300   1.353       .  A
C1584      C2472   1.479       .  S
C1585      N4296   1.350   1_455  A
C1585      C2512   1.494       .  S
N1586      N1587   1.321       .  A
N1586      N1592   1.318       .  A
N1586     Mn1615   2.210       .  S
N1587      C1594   1.352       .  A
N1588      N1590   1.322       .  A
N1588      N1589   1.320       .  A
N1589      C1595   1.353       .  A
N1590      N1591   1.321       .  A
N1591      C1595   1.354       .  A
N1592      N1593   1.325       .  A
N1592     Mn1604   2.221   1_565  S
N1593      C1594   1.356       .  A
C1594      C2555   1.483       .  S
C1595      C2475   1.480       .  S
N1596      N1602   1.314       .  A
N1596      N1597   1.313       .  A
N1597      C1605   1.344       .  A
N1598      N1599   1.323       .  A
N1598      N1600   1.318       .  A
N1598     Mn1604   2.222   1_565  S
N1599      C1606   1.357       .  A
N1600      N1601   1.312       .  A
N1600     Mn1626   2.171       .  S
N1601      C1606   1.346       .  A
N1602      N1603   1.327       .  A
N1603      C1605   1.362       .  A
Mn1604    Cl1628   2.530   1_545  S
C1605      C2495   1.479       .  S
C1606      C2545   1.465       .  S
N1607      N1608   1.332       .  A
N1607      N1613   1.310       .  A
N1607     Mn1615   2.244       .  S
N1608      C1616   1.368       .  A
N1609      N1611   1.315       .  A
N1609      N1610   1.329       .  A
N1609     Mn1627   2.263       .  S
N1610      C1617   1.364       .  A
N1611      N1612   1.313       .  A
N1611     Mn1615   2.148       .  S
N1612      C1617   1.344       .  A
N1613      N1614   1.304       .  A
N1613     Mn1627   2.144       .  S
N1614      C1616   1.329       .  A
Mn1615    Cl1628   2.556       .  S
C1616      C2452   1.469       .  S
C1617      C2502   1.480       .  S
N1618      N1619   1.320       .  A
N1618      N1624   1.310       .  A
N1618     Mn1626   2.200       .  S
N1619      C1629   1.354       .  A
N1620      N1621   1.322       .  A
N1620      N1622   1.311       .  A
N1620     Mn1627   2.198       .  S
N1621      C1630   1.350       .  A
N1622      N1623   1.325       .  A
N1622     Mn1626   2.197       .  S
N1623      C1630   1.355       .  A
N1624      N1625   1.319       .  A
N1624     Mn1627   2.174       .  S
N1625      C1629   1.353       .  A
Mn1626    Cl1628   2.539       .  S
Mn1627    Cl1628   2.509       .  S
C1629      C2485   1.476       .  S
N1631      N1632   1.326       .  A
N1631      N1637   1.312   1_655  A
N1631     Mn1660   2.205       .  S
N1632      C1639   1.356   1_655  A
N1633      N1635   1.310   1_455  A
N1633      N1634   1.320       .  A
N1633     Mn1649   2.175       .  S
N1634      C1640   1.353   1_455  A
N1635      N4356   1.320       .  A
N1635     Mn1660   2.203       .  S
N1636      N4355   1.320       .  A
N1636      C4360   1.355       .  A
N1637      N1638   1.322       .  A
N1637     Mn1649   2.200       .  S
N1638      C1639   1.350       .  A
C1639      C2515   1.494       .  S
C1640      N4356   1.355       .  A
C1640      C5122   1.477       .  S
N1641      N1647   1.317       .  A
N1641      N1642   1.313       .  A
N1641     Mn1671   2.152       .  S
N1642      C1650   1.345       .  A
N1643      N1644   1.304       .  A
N1643      N1645   1.310       .  A
N1643     Mn1649   2.140       .  S
N1644      C1651   1.329       .  A
N1645      N1646   1.332       .  A
N1645     Mn1671   2.246       .  S
N1646      C1651   1.368       .  A
N1647      N1648   1.327       .  A
N1647     Mn1649   2.256       .  S
N1648      C1650   1.362       .  A
Mn1649    Cl1673   2.497       .  S
C1650      C2432   1.477       .  S
C1651      C2455   1.468       .  S
N1652      N4373   1.314       .  A
N1652      N1658   1.318   1_655  A
N1652     Mn1660   2.179       .  S
N1653      N4372   1.314       .  A
N1653      C4381   1.348       .  A
N1654      N1656   1.313   1_455  A
N1654      N1655   1.325       .  A
N1654     Mn1672   2.225       .  S
N1655      C1662   1.360   1_455  A
N1656      N1657   1.313       .  A
N1656     Mn1660   2.158       .  S
N1657      C1662   1.344       .  A
N1658      N1659   1.321       .  A
N1658     Mn1672   2.215       .  S
N1659      C1661   1.355   1_455  A
Mn1660    Cl1673   2.540   1_655  S
C1661      N4373   1.348       .  A
C1661      C5112   1.464       .  S
C1662      C5145   1.475       .  S
N1663      N1664   1.320       .  A
N1663      N1669   1.321       .  A
N1663     Mn1671   2.209       .  S
N1664      C1674   1.354       .  A
N1665      N1666   1.323       .  A
N1665      N1667   1.317       .  A
N1665     Mn1672   2.216       .  S
N1666      C1675   1.355       .  A
N1667      N1668   1.324       .  A
N1667     Mn1671   2.222       .  S
N1668      C1675   1.355       .  A
N1669      N1670   1.319       .  A
N1669     Mn1672   2.213       .  S
N1670      C1674   1.352       .  A
Mn1671    Cl1673   2.567       .  S
Mn1672    Cl1673   2.529       .  S
C1674      C2412   1.476       .  S
C1675      C2382   1.488       .  S
N1676      N1677   1.325       .  A
N1676      N1682   1.312       .  A
N1676     Mn1705   2.200       .  S
N1677      C1684   1.355       .  A
N1678      N1680   1.310       .  A
N1678      N1679   1.319       .  A
N1678     Mn1694   2.173       .  S
N1679      C1685   1.352       .  A
N1680      N1681   1.320       .  A
N1680     Mn1705   2.202       .  S
N1681      C1685   1.355       .  A
N1682      N1683   1.322       .  A
N1682     Mn1694   2.198       .  S
N1683      C1684   1.350       .  A
C1684      C2445   1.491       .  S
C1685      C2415   1.476       .  S
N1686      N1692   1.316       .  A
N1686      N1687   1.312       .  A
N1686     Mn1716   2.149       .  S
N1687      C1695   1.344       .  A
N1688      N1689   1.304       .  A
N1688      N1690   1.311       .  A
N1688     Mn1694   2.142       .  S
N1689      C1696   1.329       .  A
N1690      N1691   1.332       .  A
N1690     Mn1716   2.246       .  S
N1691      C1696   1.368       .  A
N1692      N1693   1.327       .  A
N1692     Mn1694   2.256       .  S
N1693      C1695   1.362       .  A
Mn1694    Cl1718   2.494       .  S
C1695      C2422   1.477       .  S
C1696      C2465   1.469       .  S
N1697      N1698   1.314       .  A
N1697      N1703   1.318       .  A
N1697     Mn1705   2.175       .  S
N1698      C1706   1.347       .  A
N1699      N1701   1.314       .  A
N1699      N1700   1.326       .  A
N1699     Mn1717   2.226       .  S
N1700      C1707   1.360       .  A
N1701      N1702   1.313       .  A
N1701     Mn1705   2.159       .  S
N1702      C1707   1.344       .  A
N1703      N1704   1.321       .  A
N1703     Mn1717   2.216       .  S
N1704      C1706   1.355       .  A
Mn1705    Cl1718   2.540       .  S
C1706      C2375   1.463       .  S
C1707      C2435   1.476       .  S
N1708      N1709   1.321       .  A
N1708      N1714   1.321       .  A
N1708     Mn1716   2.212       .  S
N1709      C1719   1.354       .  A
N1710      N1711   1.323       .  A
N1710      N1712   1.317       .  A
N1710     Mn1717   2.216       .  S
N1711      C1720   1.355       .  A
N1712      N1713   1.324       .  A
N1712     Mn1716   2.220       .  S
N1713      C1720   1.355       .  A
N1714      N1715   1.319       .  A
N1714     Mn1717   2.215       .  S
N1715      C1719   1.352       .  A
Mn1716    Cl1718   2.566       .  S
Mn1717    Cl1718   2.530       .  S
C1719      C2405   1.477       .  S
C1720      C2362   1.488       .  S
N1721      N1722   1.309       .  A
N1721      N1727   1.317       .  A
N1721     Mn1750   2.158       .  S
N1722      C1729   1.343       .  A
N1723      N1725   1.314       .  A
N1723      N1724   1.328       .  A
N1723     Mn1739   2.236       .  S
N1724      C1730   1.362       .  A
N1725      N1726   1.314       .  A
N1725     Mn1750   2.164       .  S
N1726      C1730   1.344       .  A
N1727      N1728   1.323       .  A
N1727     Mn1739   2.215       .  S
N1728      C1729   1.357       .  A
C1729      C2655   1.458       .  S
C1730      C2342   1.481       .  S
N1731      N1737   1.321       .  A
N1731      N4452   1.320   1_455  A
N1731     Mn1761   2.210       .  S
N1732      N4451   1.320       .  A
N1732      C1740   1.353       .  A
N1733      N1734   1.326       .  A
N1733      N1735   1.317       .  A
N1733     Mn1739   2.225       .  S
N1734      C4461   1.357   1_455  A
N1735      N4456   1.322   1_455  A
N1735     Mn1761   2.218       .  S
N1736      N4455   1.322       .  A
N1736      C1741   1.354       .  A
N1737      N1738   1.319       .  A
N1737     Mn1739   2.213       .  S
N1738      C4460   1.352   1_455  A
Mn1739    Cl1763   2.540       .  S
C1740      N4458   1.352       .  A
C1740      C2312   1.475       .  S
C1741      N4454   1.357       .  A
C1741      C2645   1.490       .  S
N1742      N1743   1.324       .  A
N1742      N1748   1.312       .  A
N1742     Mn1750   2.191       .  S
N1743      C1751   1.355       .  A
N1744      N1746   1.310       .  A
N1744      N1745   1.319       .  A
N1744     Mn1762   2.169       .  S
N1746      N1747   1.320       .  A
N1746     Mn1750   2.201       .  S
N1748      N1749   1.320       .  A
N1748     Mn1762   2.195       .  S
N1749      C1751   1.349       .  A
Mn1750    Cl1763   2.533       .  S
C1751      C2352   1.485       .  S
C1752      C2325   1.475   1_545  S
N1753      N4474   1.313   1_455  A
N1753      N1759   1.315       .  A
N1753     Mn1761   2.149       .  S
N1754      N4473   1.313       .  A
N1755      N1756   1.304       .  A
N1755      N1757   1.310       .  A
N1755     Mn1762   2.141       .  S
N1756      C1765   1.329       .  A
N1757      N4478   1.332   1_455  A
N1757     Mn1761   2.251       .  S
N1758      N4477   1.332       .  A
N1758      C4485   1.369       .  A
N1759      N1760   1.327       .  A
N1759     Mn1762   2.256       .  S
N1760      C3124   1.363   1_455  A
Mn1761    Cl1763   2.561       .  S
Mn1762    Cl1763   2.500       .  S
C1764      N3120   1.363       .  A
C1764      C2332   1.479   1_545  S
C1765      N4478   1.369   1_455  A
C1765      C2302   1.470   1_455  S
N1766      N1767   1.315       .  A
N1766      N1772   1.317       .  A
N1766     Mn1795   2.185       .  S
N1767      C1774   1.350       .  A
N1768      N1770   1.313       .  A
N1768      N1769   1.326       .  A
N1768     Mn1784   2.223       .  S
N1769      C1775   1.361       .  A
N1770      N1771   1.314       .  A
N1770     Mn1795   2.166       .  S
N1771      C1775   1.345       .  A
N1772      N1773   1.320       .  A
N1772     Mn1784   2.202       .  S
N1773      C1774   1.353       .  A
C1774      C2605   1.460       .  S
C1775      C2335   1.478       .  S
N1776      N1782   1.321       .  A
N1776      N1777   1.322       .  A
N1776     Mn1806   2.220       .  S
N1777      C1785   1.355       .  A
N1778      N1779   1.321       .  A
N1778      N1780   1.316       .  A
N1778     Mn1784   2.206       .  S
N1779      C1786   1.353       .  A
N1780      N1781   1.322       .  A
N1780     Mn1806   2.209       .  S
N1781      C1786   1.352       .  A
N1782      N1783   1.318       .  A
N1782     Mn1784   2.201       .  S
N1783      C1785   1.350       .  A
Mn1784    Cl1808   2.530       .  S
C1785      C2322   1.475       .  S
C1786      C2615   1.474       .  S
N1787      N1788   1.327       .  A
N1787      N1793   1.313       .  A
N1787     Mn1795   2.205       .  S
N1788      C1796   1.356       .  A
N1789      N1791   1.310       .  A
N1789      N1790   1.318       .  A
N1789     Mn1807   2.166       .  S
N1790      C1797   1.352       .  A
N1791      N1792   1.320       .  A
N1791     Mn1795   2.199       .  S
N1792      C1797   1.354       .  A
N1793      N1794   1.320       .  A
N1793     Mn1807   2.197       .  S
N1794      C1796   1.348       .  A
Mn1795    Cl1808   2.539       .  S
C1796      C2292   1.491       .  S
C1797      C2315   1.474       .  S
N1798      N1799   1.313       .  A
N1798      N1804   1.315       .  A
N1798     Mn1806   2.152       .  S
N1799      C1809   1.344       .  A
N1800      N1801   1.304       .  A
N1800      N1802   1.311       .  A
N1800     Mn1807   2.143       .  S
N1801      C1810   1.331       .  A
N1802      N1803   1.331       .  A
N1802     Mn1806   2.240       .  S
N1803      C1810   1.368       .  A
N1804      N1805   1.328       .  A
N1804     Mn1807   2.256       .  S
N1805      C1809   1.364       .  A
Mn1806    Cl1808   2.554       .  S
Mn1807    Cl1808   2.508       .  S
C1809      C2345   1.481       .  S
C1810      C2282   1.466       .  S
N1811      N4532   1.333       .  A
N1811      N1817   1.311       .  A
N1811     Mn4560   2.249       .  S
N1812      N4531   1.333       .  A
N1812      C1819   1.368       .  A
N1813      N1815   1.316       .  A
N1813      N1814   1.327       .  A
N1813     Mn1829   2.255       .  S
N1814      C1820   1.362       .  A
N1815      N4536   1.312       .  A
N1815     Mn3200   2.145       .  S
N1816      N4535   1.312       .  A
N1816      C4540   1.344       .  A
N1817      N1818   1.304       .  A
N1818      C4539   1.329       .  A
C1819      N4538   1.329   1_455  A
C1820      N4536   1.344       .  A
C1820      C4982   1.476       .  S
N1821      N1827   1.310       .  A
N1821      N1822   1.321       .  A
N1822      C1830   1.356       .  A
N1823      N1824   1.322       .  A
N1823      N1825   1.311       .  A
N1824      C1831   1.350       .  A
N1825      N1826   1.325       .  A
N1825     Mn1851   2.199       .  S
N1826      C1831   1.356       .  A
N1827      N1828   1.319       .  A
N1827     Mn1829   2.174       .  S
N1828      C1830   1.353       .  A
C1830      C2252   1.478       .  S
C1831      C2295   1.490       .  S
N1832      N1833   1.323       .  A
N1832      N4558   1.318   1_455  A
N1832     Mn1840   2.220       .  S
N1833      C1841   1.354       .  A
N1834      N4556   1.322       .  A
N1834      N1835   1.319       .  A
N1834     Mn1852   2.215       .  S
N1835      C4562   1.352       .  A
N1836      N4554   1.322   1_455  A
N1836      N1837   1.322       .  A
N1836     Mn1840   2.216       .  S
N1837      C1842   1.355       .  A
N1838      N4552   1.318       .  A
N1838      N1839   1.324       .  A
N1838     Mn1852   2.215       .  S
N1839      C4561   1.355       .  A
Mn1840     N4531   2.249       .  S
Mn1840     N3175   2.145   1_565  S
Mn1840    Cl4573   2.562   1_455  S
C1841      N4559   1.355   1_455  A
C1841      C2232   1.486       .  S
C1842      N4555   1.352   1_455  A
C1842      C2242   1.478       .  S
N1843      N1844   1.314       .  A
N1843      N1849   1.314       .  A
N1843     Mn1851   2.162       .  S
N1844      C1854   1.344       .  A
N1845      N1846   1.321       .  A
N1845      N1847   1.318       .  A
N1845     Mn1852   2.217       .  S
N1846      C1855   1.355       .  A
N1847      N1848   1.315       .  A
N1847     Mn1851   2.181       .  S
N1848      C1855   1.348       .  A
N1849      N1850   1.325       .  A
N1849     Mn1852   2.221       .  S
N1850      C1854   1.359       .  A
Mn1851    Cl1853   2.545       .  S
Mn1852    Cl1853   2.523       .  S
Cl1853    Mn4560   2.562       .  S
C1854      C2272   1.473       .  S
C1855      C2222   1.465       .  S
N1856      N1857   1.331       .  A
N1856      N1862   1.311       .  A
N1856     Mn1885   2.242       .  S
N1857      C1864   1.366       .  A
N1858      N1860   1.316       .  A
N1858      N1859   1.326       .  A
N1858     Mn1874   2.248       .  S
N1859      C1865   1.361       .  A
N1860      N1861   1.313       .  A
N1860     Mn1885   2.150       .  S
N1861      C1865   1.345       .  A
N1862      N1863   1.304       .  A
N1862     Mn1874   2.146       .  S
N1863      C1864   1.330       .  A
C1864      C2285   1.469       .  S
C1865      C2275   1.474       .  S
N1866      N1872   1.310       .  A
N1866      N1867   1.320       .  A
N1866     Mn1896   2.203       .  S
N1867      C1875   1.355       .  A
N1868      N1869   1.321       .  A
N1868      N1870   1.311       .  A
N1868     Mn1874   2.190       .  S
N1869      C1876   1.349       .  A
N1870      N1871   1.324       .  A
N1870     Mn1896   2.194       .  S
N1871      C1876   1.355       .  A
N1872      N1873   1.319       .  A
N1872     Mn1874   2.174       .  S
N1873      C1875   1.353       .  A
Mn1874    Cl1898   2.504       .  S
C1875      C2245   1.478       .  S
C1876      C2355   1.485       .  S
N1877      N1878   1.322       .  A
N1877      N1883   1.317       .  A
N1877     Mn1885   2.215       .  S
N1878      C1886   1.353       .  A
N1879      N1881   1.321       .  A
N1879      N1880   1.319       .  A
N1879     Mn1897   2.216       .  S
N1880      C1887   1.352       .  A
N1881      N1882   1.321       .  A
N1881     Mn1885   2.215       .  S
N1882      C1887   1.355       .  A
N1883      N1884   1.324       .  A
N1883     Mn1897   2.215       .  S
N1884      C1886   1.355       .  A
Mn1885    Cl1898   2.559       .  S
C1886      C2212   1.484       .  S
C1887      C2255   1.479       .  S
N1888      N1889   1.314       .  A
N1888      N1894   1.314       .  A
N1888     Mn1896   2.162       .  S
N1889      C1899   1.344       .  A
N1890      N1891   1.321       .  A
N1890      N1892   1.318       .  A
N1890     Mn1897   2.216       .  S
N1891      C1900   1.355       .  A
N1892      N1893   1.314       .  A
N1892     Mn1896   2.176       .  S
N1893      C1900   1.347       .  A
N1894      N1895   1.325       .  A
N1894     Mn1897   2.223       .  S
N1895      C1899   1.360       .  A
Mn1896    Cl1898   2.543       .  S
Mn1897    Cl1898   2.524       .  S
C1899      C2265   1.475       .  S
C1900      C2202   1.463       .  S
N1901      N1902   1.323       .  A
N1901      N1907   1.317       .  A
N1901     Mn1930   2.219       .  S
N1902      C1909   1.354       .  A
N1903      N1905   1.323       .  A
N1903      N1904   1.317       .  A
N1903     Mn1919   2.206       .  S
N1904      C1910   1.349       .  A
N1905      N1906   1.322       .  A
N1905     Mn1930   2.223       .  S
N1906      C1910   1.356       .  A
N1907      N1908   1.323       .  A
N1907     Mn1919   2.207       .  S
N1908      C1909   1.354       .  A
C1909      C2215   1.484       .  S
C1910      C2162   1.474       .  S
N1911      N4637   1.312   1_455  A
N1911      N1912   1.314       .  A
N1911     Mn1941   2.161       .  S
N1912      C1920   1.345       .  A
N1913      N1914   1.320       .  A
N1913      N4635   1.319       .  A
N1913     Mn1919   2.214       .  S
N1914      C4641   1.354       .  A
N1915      N4633   1.319   1_455  A
N1915      N1916   1.316       .  A
N1915     Mn1941   2.184       .  S
N1916      C1921   1.349       .  A
N1917      N4631   1.312       .  A
N1917      N1918   1.325       .  A
N1917     Mn1919   2.215       .  S
N1918      C4640   1.359       .  A
Mn1919    Cl1943   2.523       .  S
C1920      N4638   1.359   1_455  A
C1920      C2182   1.475       .  S
C1921      N4634   1.354   1_455  A
C1921      C2205   1.463       .  S
N1922      N1923   1.336       .  A
N1922      N1928   1.312       .  A
N1922     Mn1930   2.260       .  S
N1923      C1931   1.369       .  A
N1924      N1926   1.318       .  A
N1924      N1925   1.324       .  A
N1924     Mn1942   2.239       .  S
N1925      C1932   1.360       .  A
N1926      N1927   1.313       .  A
N1926     Mn1930   2.168       .  S
N1927      C1932   1.346       .  A
N1928      N1929   1.307       .  A
N1928     Mn1942   2.132       .  S
N1929      C1931   1.332       .  A
Mn1930    Cl1943   2.560       .  S
C1931      C2142   1.479       .  S
C1932      C2172   1.474       .  S
N1933      N1934   1.322       .  A
N1933      N4659   1.308   1_455  A
N1933     Mn1941   2.193       .  S
N1934      C1944   1.355       .  A
N1935      N1936   1.324       .  A
N1935      N4657   1.317       .  A
N1935     Mn1942   2.203       .  S
N1936      C4665   1.349       .  A
N1937      N4655   1.317   1_455  A
N1937      N1938   1.323       .  A
N1937     Mn1941   2.195       .  S
N1938      C1945   1.351   1_455  A
N1939      N4653   1.308       .  A
N1939      N1940   1.317       .  A
N1939     Mn1942   2.164       .  S
N1940      C4664   1.350       .  A
Mn1941    Cl4663   2.550   1_455  S
Mn1942    Cl1943   2.510       .  S
Cl1943    Mn4661   2.550       .  S
C1944      N4660   1.350   1_455  A
C1944      C2152   1.474       .  S
C1945      N4656   1.349       .  A
C1945      C2192   1.488       .  S
N1946      N1947   1.316       .  A
N1946      N1952   1.319       .  A
N1946     Mn1975   2.181       .  S
N1947      C1954   1.348       .  A
N1948      N1950   1.313       .  A
N1948      N1949   1.326       .  A
N1948     Mn1964   2.225       .  S
N1949      C1955   1.360       .  A
N1950      N1951   1.314       .  A
N1950     Mn1975   2.159       .  S
N1951      C1955   1.344       .  A
N1952      N1953   1.320       .  A
N1952     Mn1964   2.215       .  S
N1953      C1954   1.354       .  A
C1954      C2372   1.462       .  S
N1956      N1962   1.321       .  A
N1956      N4677   1.320   1_455  A
N1956     Mn1986   2.214       .  S
N1957      N4676   1.320       .  A
N1957      C1965   1.354       .  A
N1958      N1959   1.325       .  A
N1958      N1960   1.317       .  A
N1958     Mn1964   2.217       .  S
N1959      C4686   1.356   1_455  A
N1960      N4681   1.322   1_455  A
N1960     Mn1986   2.215       .  S
N1961      N4680   1.322       .  A
N1961      C1966   1.353       .  A
N1962      N1963   1.319       .  A
N1962     Mn1964   2.213       .  S
N1963      C4685   1.352   1_455  A
Mn1964    Cl1988   2.540       .  S
C1965      N4683   1.352       .  A
C1966      N4679   1.356       .  A
C1966      C2365   1.488       .  S
N1967      N1968   1.324       .  A
N1967      N1973   1.317       .  A
N1967     Mn1975   2.201       .  S
N1968      C1976   1.352       .  A
N1969      N1971   1.309       .  A
N1969      N1970   1.319       .  A
N1969     Mn1987   2.178       .  S
N1970      C1977   1.353       .  A
N1971      N1972   1.321       .  A
N1971     Mn1975   2.193       .  S
N1972      C1977   1.354       .  A
N1973      N1974   1.326       .  A
N1973     Mn1987   2.211       .  S
N1974      C1976   1.351       .  A
Mn1975    Cl1988   2.539       .  S
C1976      C2092   1.493       .  S
C1977      C2112   1.477       .  S
N1978      N4699   1.313   1_455  A
N1978      N1984   1.318       .  A
N1978     Mn1986   2.170       .  S
N1979      N4698   1.313       .  A
N1979      C1989   1.345       .  A
N1980      N1981   1.306       .  A
N1980      N1982   1.312       .  A
N1980     Mn1987   2.132       .  S
N1981      C1990   1.333   1_455  A
N1982      N4703   1.334   1_455  A
N1982     Mn1986   2.249       .  S
N1983      N4702   1.334       .  A
N1983      C4710   1.367       .  A
N1984      N1985   1.326       .  A
N1984     Mn1987   2.246       .  S
N1985      C4709   1.362   1_455  A
Mn1986    Cl1988   2.558       .  S
Mn1987    Cl1988   2.516       .  S
C1989      N4705   1.362       .  A
C1989      C2132   1.478       .  S
C1990      N4703   1.367       .  A
C1990      C2195   1.473       .  S
N1991      N1992   1.323       .  A
N1991      N1997   1.317       .  A
N1991     Mn2020   2.218       .  S
N1992      C1999   1.354       .  A
N1993      N1995   1.322       .  A
N1993      N1994   1.317       .  A
N1993     Mn2009   2.204       .  S
N1994      C2000   1.349       .  A
N1995      N1996   1.321       .  A
N1995     Mn2020   2.220       .  S
N1996      C2000   1.356       .  A
N1997      N1998   1.323       .  A
N1997     Mn2009   2.207       .  S
N1998      C1999   1.354       .  A
C1999      C2235   1.485       .  S
C2000      C2155   1.474       .  S
N2001      N2007   1.312       .  A
N2001      N2002   1.314       .  A
N2001     Mn2031   2.161       .  S
N2002      C2010   1.345       .  A
N2003      N2004   1.320       .  A
N2003      N2005   1.319       .  A
N2003     Mn2009   2.214       .  S
N2004      C2011   1.354       .  A
N2005      N2006   1.317       .  A
N2005     Mn2031   2.188       .  S
N2006      C2011   1.350       .  A
N2007      N2008   1.325       .  A
N2007     Mn2009   2.215       .  S
N2008      C2010   1.359       .  A
Mn2009    Cl2033   2.529       .  S
C2010      C2175   1.475       .  S
C2011      C2225   1.465       .  S
N2012      N2013   1.336       .  A
N2012      N2018   1.312       .  A
N2012     Mn2020   2.260       .  S
N2013      C2021   1.369       .  A
N2014      N2016   1.318       .  A
N2014      N2015   1.324       .  A
N2015      C2022   1.360       .  A
N2016      N2017   1.314       .  A
N2017      C2022   1.346       .  A
N2018      N2019   1.307       .  A
N2018     Mn2032   2.133   1_565  S
N2019      C2021   1.332       .  A
Mn2020    Cl2033   2.566       .  S
C2021      C2095   1.479   1_565  S
C2022      C2185   1.475       .  S
N2023      N2024   1.322       .  A
N2023      N2029   1.309       .  A
N2024      C2034   1.355       .  A
N2025      N2026   1.324       .  A
N2025      N2027   1.317       .  A
N2025     Mn2032   2.203   1_565  S
N2026      C2035   1.349       .  A
N2027      N2028   1.324       .  A
N2027     Mn2031   2.200       .  S
N2028      C2035   1.352       .  A
N2029      N2030   1.317       .  A
N2030      C2034   1.350       .  A
Mn2031    Cl2033   2.545       .  S
Mn2032    Cl2033   2.505   1_545  S
C2034      C2165   1.474       .  S
C2035      C2082   1.489       .  S
N2036      N2037   1.316       .  A
N2036      N2042   1.319       .  A
N2036     Mn2065   2.183       .  S
N2037      C2044   1.348       .  A
N2038      N2040   1.313       .  A
N2038      N2039   1.326       .  A
N2038     Mn2054   2.225       .  S
N2039      C2045   1.360       .  A
N2040      N2041   1.314       .  A
N2040     Mn2065   2.160       .  S
N2041      C2045   1.344       .  A
N2042      N2043   1.320       .  A
N2042     Mn2054   2.217       .  S
N2043      C2044   1.355       .  A
C2044      C2395   1.463       .  S
C2045      C2135   1.477       .  S
N2046      N2052   1.322       .  A
N2046      N2047   1.320       .  A
N2046     Mn2076   2.215       .  S
N2047      C2055   1.354       .  A
N2048      N2049   1.325       .  A
N2048      N2050   1.317       .  A
N2048     Mn2054   2.219       .  S
N2049      C2056   1.356       .  A
N2050      N2051   1.322       .  A
N2050     Mn2076   2.218       .  S
N2051      C2056   1.353       .  A
N2052      N2053   1.319       .  A
N2052     Mn2054   2.215       .  S
N2053      C2055   1.352       .  A
Mn2054    Cl2078   2.533       .  S
C2055      C2115   1.477       .  S
C2056      C2385   1.489       .  S
N2057      N2058   1.323       .  A
N2057      N2063   1.316       .  A
N2057     Mn2065   2.199       .  S
N2058      C2066   1.352       .  A
N2059      N2061   1.309       .  A
N2059      N2060   1.319       .  A
N2059     Mn2077   2.176       .  S
N2060      C2067   1.352       .  A
N2061      N2062   1.321       .  A
N2061     Mn2065   2.192       .  S
N2062      C2067   1.354       .  A
N2063      N2064   1.326       .  A
N2063     Mn2077   2.212       .  S
N2064      C2066   1.351       .  A
Mn2065    Cl2078   2.546       .  S
C2066      C2145   1.494       .  S
C2067      C2105   1.477       .  S
N2068      N2069   1.314       .  A
N2068      N2074   1.318       .  A
N2068     Mn2076   2.171       .  S
N2069      C2079   1.346       .  A
N2070      N2071   1.306       .  A
N2070      N2072   1.311       .  A
N2070     Mn2077   2.131       .  S
N2071      C2080   1.333       .  A
N2072      N2073   1.334       .  A
N2072     Mn2076   2.250       .  S
N2073      C2080   1.368       .  A
N2074      N2075   1.326       .  A
N2074     Mn2077   2.244       .  S
N2075      C2079   1.361       .  A
Mn2076    Cl2078   2.555       .  S
Mn2077    Cl2078   2.520       .  S
C2079      C2125   1.477       .  S
C2080      C2085   1.473       .  S
C2081      C2082   1.407       .  A
C2081      C2086   1.407       .  A
C2081      H2087   1.083       .  S
C2082      C2083   1.405       .  A
C2083      C2084   1.400       .  A
C2083      H2088   1.083       .  S
C2084      C2085   1.407       .  A
C2084      H2089   1.084       .  S
C2085      C2086   1.407       .  A
C2086      H2090   1.083       .  S
C2091      C2092   1.405       .  A
C2091      H2097   1.083       .  S
C2092      C2093   1.408       .  A
C2093      C2094   1.410       .  A
C2093      H2098   1.083       .  S
C2094      H2099   1.083       .  S
C2095      C2096   1.407       .  A
C2096      H2100   1.084   1_545  S
C2101      C2102   1.405       .  A
C2101      C2106   1.398       .  A
C2101      H4827   1.082       .  S
C2103      H2108   1.083       .  S
C2104      C2105   1.405       .  A
C2104      H2109   1.082       .  S
C2105      C2106   1.404       .  A
C2106      H2110   1.083       .  S
H2107      C4821   1.082   1_455  S
C2111      C2112   1.404       .  A
C2111      C2116   1.399       .  A
C2111      H2117   1.083       .  S
C2112      C2113   1.405       .  A
C2113      C2114   1.397       .  A
C2113      H2118   1.082       .  S
C2114      C2115   1.403       .  A
C2114      H2119   1.083       .  S
C2115      C2116   1.405       .  A
C2116      H2120   1.082       .  S
C2121      C2122   1.400       .  A
C2121      C2126   1.398       .  A
C2121      H2127   1.082       .  S
C2123      H2128   1.083       .  S
C2124      C2125   1.399       .  A
C2124      H2129   1.082       .  S
C2125      C2126   1.410       .  A
C2126      H2130   1.083       .  S
C2131      C2132   1.400       .  A
C2131      C2136   1.399       .  A
C2131      H4857   1.082       .  S
C2132      C2133   1.410       .  A
C2133      C2134   1.397       .  A
C2133      H2138   1.083       .  S
C2134      C2135   1.399       .  A
C2134      H2139   1.082       .  S
C2135      C2136   1.410       .  A
C2136      H2140   1.083       .  S
H2137      C4851   1.082   1_455  S
C2141      C2142   1.407       .  A
C2141      C2146   1.401       .  A
C2141      H2147   1.084       .  S
C2142      C2143   1.409       .  A
C2143      C2144   1.411       .  A
C2143      H2148   1.083       .  S
C2144      C2145   1.409       .  A
C2144      H2149   1.083       .  S
C2145      C2146   1.405       .  A
C2146      H2150   1.083       .  S
C2151      C2152   1.402       .  A
C2151      C2156   1.397       .  A
C2151      H2157   1.083       .  S
C2152      C2153   1.406       .  A
C2153      C2154   1.395       .  A
C2153      H2158   1.082       .  S
C2154      C2155   1.401       .  A
C2154      H2159   1.083       .  S
C2155      C2156   1.406       .  A
C2156      H2160   1.083       .  S
C2161      C2162   1.407       .  A
C2161      C2166   1.397       .  A
C2161      H2167   1.083       .  S
C2162      C2163   1.402       .  A
C2163      C2164   1.396       .  A
C2163      H2168   1.083       .  S
C2164      C2165   1.406       .  A
C2164      H2169   1.082       .  S
C2165      C2166   1.402       .  A
C2166      H2170   1.083       .  S
C2171      C2172   1.409       .  A
C2171      C2176   1.396       .  A
C2171      H2177   1.083       .  S
C2172      C2173   1.400       .  A
C2173      C2174   1.397       .  A
C2173      H2178   1.082       .  S
C2174      C2175   1.409       .  A
C2174      H2179   1.083       .  S
C2175      C2176   1.400       .  A
C2176      H2180   1.082       .  S
C2181      C2182   1.409       .  A
C2181      C2186   1.396       .  A
C2181      H2187   1.083       .  S
C2182      C2183   1.400       .  A
C2183      C2184   1.397       .  A
C2183      H2188   1.082       .  S
C2184      C2185   1.409       .  A
C2184      H2189   1.083       .  S
C2185      C2186   1.400       .  A
C2186      H2190   1.082       .  S
C2191      C2192   1.405       .  A
C2191      C2196   1.400       .  A
C2191      H2197   1.083   1_655  S
C2192      C4913   1.407       .  A
C2193      C4912   1.407       .  A
C2193      C2194   1.407       .  A
C2193      H2198   1.083       .  S
C2194      C4915   1.407       .  A
C2194      H2199   1.083       .  S
C2195      C4914   1.407       .  A
C2195      C2196   1.407       .  A
C2196      H2200   1.084       .  S
C2201      C2202   1.399       .  A
C2201      C2206   1.395       .  A
C2201      H2207   1.083       .  S
C2202      C2203   1.405       .  A
C2203      C2204   1.392       .  A
C2203      H2208   1.083       .  S
C2204      C2205   1.399       .  A
C2204      H2209   1.083       .  S
C2205      C2206   1.405       .  A
C2206      H2210   1.083       .  S
C2211      C2212   1.405       .  A
C2211      C2216   1.403       .  A
C2211      H2217   1.082       .  S
C2212      C2213   1.406       .  A
C2213      C2214   1.402       .  A
C2213      H2218   1.083       .  S
C2214      C2215   1.404       .  A
C2214      H2219   1.083       .  S
C2215      C2216   1.406       .  A
C2216      H2220   1.083       .  S
C2221      C2222   1.400       .  A
C2221      C2226   1.396       .  A
C2221      H2227   1.083       .  S
C2222      C2223   1.405       .  A
C2223      C2224   1.393       .  A
C2223      H2228   1.083       .  S
C2224      C2225   1.399       .  A
C2224      H2229   1.083       .  S
C2225      C2226   1.405       .  A
C2226      H2230   1.083       .  S
C2231      C2232   1.405       .  A
C2231      C2236   1.403       .  A
C2231      H4957   1.082   1_455  S
C2232      C2233   1.406       .  A
C2233      C2234   1.403       .  A
C2233      H2238   1.083       .  S
C2234      C2235   1.405       .  A
C2234      H2239   1.083       .  S
C2235      C2236   1.406       .  A
C2236      H2240   1.083       .  S
H2237      C4951   1.082       .  S
C2241      C2242   1.405       .  A
C2241      C2246   1.397       .  A
C2241      H2247   1.082       .  S
C2242      C2243   1.404       .  A
C2243      C2244   1.399       .  A
C2243      H2248   1.083       .  S
C2244      C2245   1.406       .  A
C2244      H2249   1.082       .  S
C2245      C2246   1.403       .  A
C2246      H2250   1.083       .  S
C2251      C2252   1.404       .  A
C2251      C2256   1.398       .  A
C2251      H2257   1.083       .  S
C2252      C2253   1.406       .  A
C2253      C2254   1.399       .  A
C2253      H2258   1.082       .  S
C2254      C2255   1.404       .  A
C2254      H2259   1.083       .  S
C2255      C2256   1.406       .  A
C2256      H2260   1.082       .  S
C2261      C2262   1.399       .  A
C2261      C2266   1.398       .  A
C2261      H2267   1.082       .  S
C2262      C4540   1.476       .  S
C2262      C2263   1.410       .  A
C2263      C2264   1.396       .  A
C2263      H2268   1.083       .  S
C2264      C2265   1.399       .  A
C2264      H2269   1.083       .  S
C2265      C2266   1.410       .  A
C2266      H2270   1.083       .  S
C2271      C2272   1.409       .  A
C2271      C2276   1.397       .  A
C2271      H2277   1.083       .  S
C2272      C2273   1.399       .  A
C2273      C2274   1.396       .  A
C2273      H2278   1.083       .  S
C2274      C2275   1.409       .  A
C2274      H2279   1.083       .  S
C2275      C2276   1.400       .  A
C2276      H2280   1.082       .  S
C2281      C2282   1.404       .  A
C2281      C2286   1.398       .  A
C2281      H2287   1.084       .  S
C2282      C2283   1.409       .  A
C2283      C2284   1.403       .  A
C2283      H2288   1.084       .  S
C2284      C2285   1.405       .  A
C2284      H2289   1.083       .  S
C2285      C2286   1.407       .  A
C2286      H2290   1.084       .  S
C2291      C2292   1.405       .  A
C2291      C2296   1.405       .  A
C2291      H2297   1.083       .  S
C2292      C2293   1.409       .  A
C2293      C2294   1.402       .  A
C2293      H2298   1.083       .  S
C2294      C2295   1.404       .  A
C2294      H2299   1.083       .  S
C2295      C2296   1.410       .  A
C2296      H2300   1.083       .  S
C2301      C5022   1.410       .  A
C2301      C2306   1.404       .  A
C2301      H2307   1.084       .  S
C2302      C5021   1.410   1_655  A
C2302      C2303   1.404       .  A
C2303      C2304   1.400   1_655  A
C2303      H2308   1.084       .  S
C2304      C2305   1.408       .  A
C2305      C5026   1.405       .  A
C2306      C5025   1.405       .  A
C2306      H2310   1.083       .  S
C2311      C2312   1.405       .  A
C2311      C2316   1.397       .  A
C2311      H5037   1.082       .  S
C2312      C2313   1.403       .  A
C2313      C2314   1.396       .  A
C2313      H2318   1.083       .  S
C2314      C2315   1.405       .  A
C2314      H2319   1.082       .  S
C2315      C2316   1.403       .  A
C2316      H2320   1.083       .  S
H2317      C5031   1.082   1_455  S
C2321      C2322   1.403       .  A
C2321      C2326   1.398       .  A
C2321      H2327   1.083       .  S
C2322      C2323   1.405       .  A
C2323      C2324   1.395       .  A
C2323      H2328   1.082       .  S
C2324      C2325   1.403       .  A
C2325      C2326   1.405       .  A
C2326      H2330   1.082       .  S
C2331      C2332   1.411       .  A
C2331      C2336   1.398       .  A
C2332      C2333   1.399       .  A
C2333      C2334   1.398       .  A
C2333      H5058   1.082       .  S
C2334      C2335   1.410       .  A
C2334      H2339   1.083       .  S
C2335      C2336   1.399       .  A
C2336      H2340   1.083       .  S
H2338      C5053   1.082   1_455  S
C2341      C2342   1.399       .  A
C2341      C2346   1.399       .  A
C2341      H2347   1.083       .  S
C2342      C2343   1.411       .  A
C2343      C2344   1.399       .  A
C2343      H2348   1.083       .  S
C2344      C2345   1.399       .  A
C2344      H2349   1.082       .  S
C2345      C2346   1.411       .  A
C2346      H2350   1.083       .  S
C2351      C2352   1.405       .  A
C2351      C2356   1.402       .  A
C2351      H2357   1.083       .  S
C2352      C2353   1.408       .  A
C2353      C2354   1.400       .  A
C2353      H2358   1.083       .  S
C2354      C2355   1.404       .  A
C2354      H2359   1.083       .  S
C2355      C2356   1.408       .  A
C2356      H2360   1.083       .  S
C2361      C2362   1.405       .  A
C2361      C2366   1.403       .  A
C2361      H2367   1.082       .  S
C2362      C2363   1.407       .  A
C2363      C2364   1.405       .  A
C2363      H2368   1.083       .  S
C2364      C2365   1.406       .  A
C2364      H5089   1.082       .  S
C2365      C2366   1.407       .  A
C2366      H2370   1.083       .  S
H2369      C5084   1.082   1_455  S
C2371      C2372   1.405       .  A
C2371      C2376   1.395       .  A
C2371      H2377   1.083       .  S
C2372      C2373   1.398       .  A
C2373      C2374   1.392       .  A
C2373      H2378   1.083       .  S
C2374      C2375   1.405       .  A
C2374      H2379   1.083       .  S
C2375      C2376   1.400       .  A
C2376      H2380   1.083       .  S
C2381      C2382   1.408       .  A
C2381      C2386   1.406       .  A
C2381      H2387   1.083       .  S
C2382      C2383   1.405       .  A
C2383      C2384   1.403       .  A
C2383      H2388   1.082       .  S
C2384      C2385   1.407       .  A
C2384      H2389   1.083       .  S
C2385      C2386   1.406       .  A
C2386      H2390   1.082       .  S
C2391      C2392   1.400       .  A
C2391      C2396   1.395       .  A
C2391      H5117   1.083       .  S
C2392      C4381   1.464       .  S
C2392      C2393   1.405       .  A
C2393      C2394   1.392       .  A
C2393      H2398   1.083       .  S
C2394      C2395   1.399       .  A
C2394      H2399   1.083       .  S
C2395      C2396   1.405       .  A
C2396      H2400   1.083       .  S
H2397      C5111   1.083   1_455  S
C2401      C2402   1.406       .  A
C2401      H5127   1.082       .  S
C2402      C4360   1.477       .  S
C2402      C2403   1.404       .  A
C2403      C2404   1.397       .  A
C2403      H2408   1.083       .  S
C2404      H2409   1.082       .  S
C2405      C2406   1.404       .  A
C2406      H2410   1.083       .  S
H2407      C5121   1.082       .  S
C2411      C2412   1.405       .  A
C2411      C2416   1.397       .  A
C2411      H2417   1.082       .  S
C2412      C2413   1.404       .  A
C2413      C2414   1.397       .  A
C2413      H2418   1.083       .  S
C2414      C2415   1.405       .  A
C2414      H2419   1.082       .  S
C2415      C2416   1.403       .  A
C2416      H2420   1.083       .  S
C2421      C2422   1.399       .  A
C2421      C2426   1.398       .  A
C2421      H2427   1.082       .  S
C2422      C2423   1.410       .  A
C2423      C2424   1.396       .  A
C2423      H2428   1.083       .  S
C2424      C2425   1.398       .  A
C2424      H5149   1.083       .  S
C2425      C4382   1.475       .  S
C2425      C2426   1.410       .  A
C2426      H2430   1.083       .  S
H2429      C5144   1.083       .  S
C2431      C2432   1.410       .  A
C2431      C2436   1.397       .  A
C2431      H2437   1.083       .  S
C2432      C2433   1.399       .  A
C2434      C2435   1.410       .  A
C2434      H2439   1.083       .  S
C2436      H2440   1.083       .  S
C2441      C2442   1.406       .  A
C2441      C2446   1.404       .  A
C2441      H2447   1.083       .  S
C2442      C2443   1.409       .  A
C2443      C2444   1.403   1_554  A
C2444      C2445   1.405       .  A
C2444      H2449   1.083       .  S
C2445      C2446   1.409   1_556  A
C2446      H2450   1.083       .  S
C2451      C2452   1.408   1_556  A
C2451      C2456   1.401       .  A
C2451      H2457   1.084       .  S
C2452      C2453   1.405       .  A
C2453      C2454   1.401       .  A
C2453      H2458   1.084       .  S
C2454      C2455   1.409   1_554  A
C2454      H2459   1.084       .  S
C2455      C2456   1.405       .  A
C2456      H2460   1.084       .  S
C2461      C2462   1.409   1_556  A
C2461      C2466   1.402       .  A
C2461      H2467   1.084       .  S
C2462      C2463   1.404       .  A
C2463      C2464   1.399       .  A
C2463      H2468   1.084       .  S
C2464      C2465   1.408   1_554  A
C2464      H2469   1.084       .  S
C2465      C2466   1.405       .  A
C2466      H2470   1.083       .  S
C2471      C2472   1.404       .  A
C2471      C2476   1.398       .  A
C2471      H2477   1.083       .  S
C2472      C2473   1.406       .  A
C2473      C2474   1.399       .  A
C2473      H2478   1.082       .  S
C2474      C2475   1.405       .  A
C2474      H2479   1.083       .  S
C2475      C2476   1.405       .  A
C2476      H2480   1.082       .  S
C2481      C2482   1.405       .  A
C2481      C2486   1.397       .  A
C2481      H2487   1.082       .  S
C2482      C2483   1.404       .  A
C2483      C2484   1.398       .  A
C2483      H2488   1.083       .  S
C2484      C2485   1.405       .  A
C2484      H2489   1.082       .  S
C2485      C2486   1.404       .  A
C2486      H2490   1.083       .  S
C2491      C2492   1.399       .  A
C2491      C2496   1.398       .  A
C2491      H2497   1.082       .  S
C2492      C2493   1.411       .  A
C2493      C2494   1.398       .  A
C2493      H2498   1.083       .  S
C2494      C2495   1.399       .  A
C2494      H2499   1.083       .  S
C2495      C2496   1.411       .  A
C2496      H2500   1.083       .  S
C2501      C2502   1.399       .  A
C2501      C2506   1.400       .  A
C2501      H2507   1.082       .  S
C2502      C2503   1.411       .  A
C2503      C2504   1.399       .  A
C2503      H2508   1.083       .  S
C2504      C2505   1.399       .  A
C2504      H2509   1.083       .  S
C2505      C2506   1.411       .  A
C2506      H2510   1.083       .  S
C2511      C2512   1.406       .  A
C2511      C2516   1.405       .  A
C2511      H2517   1.083       .  S
C2512      C5233   1.410   1_455  A
C2513      C5232   1.410       .  A
C2513      C2514   1.404   1_554  A
C2513      H2518   1.083   1_554  S
C2514      C5235   1.406       .  A
C2514      H2519   1.083       .  S
C2515      C5234   1.406   1_455  A
C2515      C2516   1.410   1_556  A
C2516      H2520   1.083       .  S
C2521      C2522   1.407       .  A
C2521      C2526   1.398       .  A
C2521      H2527   1.083       .  S
C2522      C2523   1.400       .  A
C2523      C2524   1.392       .  A
C2523      H2528   1.083       .  S
C2524      C2525   1.406       .  A
C2524      H2529   1.083       .  S
C2525      C2526   1.402       .  A
C2526      H2530   1.083       .  S
C2531      C2532   1.409       .  A
C2531      C2536   1.400       .  A
C2531      H2537   1.083       .  S
C2532      C2533   1.405       .  A
C2533      C2534   1.408       .  A
C2533      H2538   1.082       .  S
C2534      C2535   1.411       .  A
C2534      H2539   1.083       .  S
C2535      C2536   1.402       .  A
C2536      H2540   1.082       .  S
C2541      C2542   1.397       .  A
C2541      C2546   1.390       .  A
C2541      H2547   1.083       .  S
C2542      C2543   1.407       .  A
C2543      C2544   1.398       .  A
C2543      H2548   1.083       .  S
C2544      C2545   1.400       .  A
C2544      H2549   1.083       .  S
C2545      C2546   1.405       .  A
C2546      H2550   1.083       .  S
C2551      C2552   1.406       .  A
C2551      C2556   1.403       .  A
C2551      H2557   1.083       .  S
C2552      C2553   1.404       .  A
C2553      C2554   1.401       .  A
C2553      H2558   1.083       .  S
C2554      C2555   1.406       .  A
C2554      H2559   1.083       .  S
C2555      C2556   1.405       .  A
C2556      H2560   1.082       .  S
C2561      C2562   1.405       .  A
C2561      C2566   1.404       .  A
C2561      H2567   1.083       .  S
C2562      C2563   1.407       .  A
C2563      C2564   1.404       .  A
C2563      H2568   1.083       .  S
C2564      C2565   1.405       .  A
C2564      H2569   1.083       .  S
C2565      C2566   1.407       .  A
C2566      H2570   1.082       .  S
C2571      C2572   1.404       .  A
C2571      C2576   1.401       .  A
C2571      H2577   1.083       .  S
C2572      C2573   1.404       .  A
C2573      C2574   1.398       .  A
C2573      H2578   1.082       .  S
C2574      C2575   1.404       .  A
C2574      H2579   1.083       .  S
C2575      C2576   1.405       .  A
C2576      H2580   1.083       .  S
C2581      C2582   1.397       .  A
C2581      C2586   1.392       .  A
C2581      H2587   1.082       .  S
C2582      C2583   1.408       .  A
C2583      C2584   1.396       .  A
C2583      H2588   1.083       .  S
C2584      C2585   1.398       .  A
C2584      H2589   1.083       .  S
C2585      C2586   1.406       .  A
C2586      H2590   1.083       .  S
C2591      C2592   1.409       .  A
C2591      C2596   1.396       .  A
C2591      H2597   1.084       .  S
C2592      C2593   1.397       .  A
C2593      C2594   1.398       .  A
C2593      H2598   1.082       .  S
C2594      C2595   1.410       .  A
C2594      H2599   1.083       .  S
C2595      C2596   1.398       .  A
C2596      H2600   1.083       .  S
C2601      C2602   1.401       .  A
C2601      C2606   1.393       .  A
C2601      H2607   1.083       .  S
C2602      C2603   1.403       .  A
C2603      C2604   1.393       .  A
C2603      H2608   1.084       .  S
C2604      C2605   1.400       .  A
C2604      H2609   1.083       .  S
C2605      C2606   1.402       .  A
C2606      H2610   1.084       .  S
C2611      C2612   1.406       .  A
C2611      C2616   1.394       .  A
C2611      H2617   1.083       .  S
C2612      C2613   1.405       .  A
C2613      C2614   1.405       .  A
C2613      H2618   1.083       .  S
C2614      C2615   1.406       .  A
C2614      H2619   1.083       .  S
C2615      C2616   1.399       .  A
C2616      H2620   1.084       .  S
C2621      C2622   1.395       .  A
C2621      C2626   1.396       .  A
C2621      H2627   1.083       .  S
C2622      C2623   1.417       .  A
C2623      C2624   1.410       .  A
C2623      H2628   1.075       .  S
C2624      C2625   1.399       .  A
C2624      H2629   1.082       .  S
C2625      C2626   1.416       .  A
C2626      H2630   1.082       .  S
C2631      C2632   1.399       .  A
C2631      C2636   1.410       .  A
C2631      H2637   1.083       .  S
C2632      C4157   1.495       .  S
C2632      C5353   1.416       .  A
C2633      C5352   1.416       .  A
C2633      C5354   1.398       .  A
C2633      H2638   1.083       .  S
C2634      C5353   1.398       .  A
C2634      C2635   1.395       .  A
C2634      H2639   1.084       .  S
C2635      C2636   1.417       .  A
C2636      H2640   1.080       .  S
C2641      C2642   1.405       .  A
C2641      C2646   1.403       .  A
C2641      H2647   1.083       .  S
C2642      C2643   1.407       .  A
C2643      C2644   1.407       .  A
C2643      H2648   1.083       .  S
C2644      C2645   1.406       .  A
C2644      H5369   1.082       .  S
C2645      C2646   1.407       .  A
C2646      H2650   1.083       .  S
H2649      C5364   1.082   1_455  S
C2651      C2652   1.396       .  A
C2651      C2656   1.386       .  A
C2651      H2657   1.083       .  S
C2652      C2653   1.406       .  A
C2653      C2654   1.395       .  A
C2653      H2658   1.083       .  S
C2654      C2655   1.398       .  A
C2654      H2659   1.083       .  S
C2655      C2656   1.405       .  A
C2656      H2660   1.083       .  S
C2661      C2662   1.407       .  A
C2661      C2666   1.405       .  A
C2661      H2667   1.083       .  S
C2662      C2663   1.407       .  A
C2663      C2664   1.401       .  A
C2663      H2668   1.083       .  S
C2664      C2665   1.406       .  A
C2664      H2669   1.083       .  S
C2665      C2666   1.408       .  A
C2666      H2670   1.083       .  S
C2671      C2672   1.408       .  A
C2671      C2676   1.397       .  A
C2671      H2677   1.083       .  S
C2672      C2673   1.402       .  A
C2673      C2674   1.400       .  A
C2673      H2678   1.083       .  S
C2674      C2675   1.407       .  A
C2674      H5399   1.083       .  S
C2675      C2676   1.400       .  A
C2676      H2680   1.083       .  S
H2679      C5394   1.083       .  S
C2681      C2682   1.405       .  A
C2681      C2686   1.400       .  A
C2681      H2687   1.083       .  S
C2682      C2683   1.401       .  A
C2683      C2684   1.398       .  A
C2683      H2688   1.083       .  S
C2684      C2685   1.406       .  A
C2684      H2689   1.083       .  S
C2685      C2686   1.404       .  A
C2686      H2690   1.083       .  S
C2691      C2692   1.403       .  A
C2691      C2696   1.398       .  A
C2691      H2697   1.083       .  S
C2692      C2693   1.407       .  A
C2693      C2694   1.405       .  A
C2693      H2698   1.083       .  S
C2694      C2695   1.405       .  A
C2694      H2699   1.083       .  S
C2695      C2696   1.405       .  A
C2696      H2700   1.083       .  S
C2701      C2702   1.406       .  A
C2701      C2706   1.398       .  A
C2701      H2707   1.083       .  S
C2702      C2703   1.405       .  A
C2703      C2704   1.404       .  A
C2703      H2708   1.082       .  S
C2704      C2705   1.406       .  A
C2704      H2709   1.083       .  S
C2705      C2706   1.403       .  A
C2706      H2710   1.083       .  S
C2711      C2712   1.408       .  A
C2711      H2717   1.083       .  S
C2712      C2713   1.404       .  A
C2713      C2714   1.397       .  A
C2713      H2718   1.084       .  S
C2714      H2719   1.083       .  S
C2715      C2716   1.406       .  A
C2716      H2720   1.083       .  S
N2721      N2722   1.321       .  A
N2721      N2727   1.315       .  A
N2721     Mn2750   2.189       .  S
N2722      C2729   1.352       .  A
N2723      N2725   1.311       .  A
N2723      N4084   1.319   1_545  A
N2723     Mn2739   2.181       .  S
N2724      N4083   1.319       .  A
N2724      C2730   1.351       .  A
N2725      N2726   1.323       .  A
N2725     Mn2750   2.207       .  S
N2726      C4090   1.356   1_545  A
N2727      N2728   1.325       .  A
N2727     Mn2739   2.217       .  S
N2728      C2729   1.355       .  A
C2729      C4022   1.488       .  S
C2730      N4086   1.356       .  A
C2730      C4045   1.479       .  S
N2731      N2737   1.320       .  A
N2731      N4092   1.318       .  A
N2731     Mn2761   2.196       .  S
N2732      N4091   1.318       .  A
N2732      C2740   1.350       .  A
N2733      N2734   1.308       .  A
N2733      N2735   1.315       .  A
N2733     Mn2739   2.144       .  S
N2734      C2741   1.336       .  A
N2735      N2736   1.333       .  A
N2735     Mn2761   2.248       .  S
N2736      C2741   1.364       .  A
N2737      N4098   1.326   1_545  A
N2737     Mn2739   2.244       .  S
N2738      N4097   1.326       .  A
N2738      C2740   1.359       .  A
Mn2739    Cl2763   2.519       .  S
C2740      C4062   1.481       .  S
C2741      C4072   1.473       .  S
N2742      N2743   1.315       .  A
N2742      N2748   1.317       .  A
N2742     Mn2750   2.173       .  S
N2743      C2751   1.347       .  A
N2744      N2746   1.314       .  A
N2744      N2745   1.324       .  A
N2744     Mn2762   2.212       .  S
N2745      C2752   1.355       .  A
N2746      N2747   1.320       .  A
N2746     Mn2750   2.194       .  S
N2747      C2752   1.351       .  A
N2748      N2749   1.317       .  A
N2748     Mn2762   2.202       .  S
N2749      C2751   1.353       .  A
Mn2750    Cl2763   2.560       .  S
C2751      C4012   1.457       .  S
C2752      C4052   1.480       .  S
N2753      N2754   1.324       .  A
N2753      N2759   1.322       .  A
N2753     Mn2761   2.233       .  S
N2754      C2764   1.358       .  A
N2755      N2756   1.322       .  A
N2755      N2757   1.317       .  A
N2755     Mn2762   2.205       .  S
N2756      C2765   1.353       .  A
N2757      N2758   1.325       .  A
N2757     Mn2761   2.228       .  S
N2758      C2765   1.356       .  A
N2759      N2760   1.316       .  A
N2759     Mn2762   2.201       .  S
N2760      C2764   1.348       .  A
Mn2761    Cl2763   2.565       .  S
Mn2762    Cl2763   2.525       .  S
C2764      C4032   1.477       .  S
C2765      C4002   1.488       .  S
N2766      N2772   1.310       .  A
N2766     Mn2795   2.207       .  S
N2767      C2774   1.354   1_455  A
N2768      N2770   1.318       .  A
N2768      N2769   1.320       .  A
N2768     Mn2784   2.204       .  S
N2769      C2775   1.352       .  A
N2770      N2771   1.321       .  A
N2770     Mn2795   2.215       .  S
N2771      C2775   1.355       .  A
N2772     Mn2784   2.183       .  S
N2773      C2774   1.354   1_455  A
C2774      C4065   1.479       .  S
C2775      C4042   1.474       .  S
N2776      N2782   1.316       .  A
N2776      N2777   1.327       .  A
N2776     Mn2806   2.227       .  S
N2777      C2785   1.360       .  A
N2778      N2780   1.315       .  A
N2778     Mn2784   2.188       .  S
N2779      C2786   1.350       .  A
N2780     Mn2806   2.190       .  S
N2781      C2786   1.351       .  A
N2782      N2783   1.315       .  A
N2782     Mn2784   2.186       .  S
N2783      C2785   1.348       .  A
Mn2784    Cl2808   2.532       .  S
C2785      C3972   1.480       .  S
C2786      C3962   1.461       .  S
N2787      N2788   1.334       .  A
N2787      N2793   1.318       .  A
N2787     Mn2795   2.283       .  S
N2788      C2796   1.362       .  A
N2789      N2791   1.316       .  A
N2789      N2790   1.332       .  A
N2789     Mn2807   2.274       .  S
N2791      N2792   1.311       .  A
N2791     Mn2795   2.161       .  S
N2793      N2794   1.310       .  A
N2793     Mn2807   2.127       .  S
N2794      C2796   1.335       .  A
Mn2795    Cl2808   2.507       .  S
C2796      C3982   1.479       .  S
N2798      N2804   1.319       .  A
N2798     Mn2806   2.229       .  S
N2799      C2809   1.355   1_455  A
N2800      N2801   1.320       .  A
N2800      N2802   1.315       .  A
N2800     Mn2807   2.209       .  S
N2801      C2810   1.352       .  A
N2802      N2803   1.324       .  A
N2802     Mn2806   2.204       .  S
N2803      C2810   1.356       .  A
N2804     Mn2807   2.191       .  S
N2805      C2809   1.350   1_455  A
Mn2806    Cl2808   2.551       .  S
Mn2807    Cl2808   2.516       .  S
C2809      C4035   1.474       .  S
C2810      C4055   1.481       .  S
N2811      N2812   1.334       .  A
N2811     Mn2840   2.245       .  S
N2812      C2819   1.361       .  A
N2813      N2814   1.324   1_655  A
N2813     Mn2829   2.240       .  S
N2815      N2816   1.314       .  A
N2815     Mn2840   2.171       .  S
N2816      C2820   1.345       .  A
N2817      N2818   1.311   1_655  A
N2817     Mn2829   2.153       .  S
C2819      C3995   1.480       .  S
C2820      C3955   1.472       .  S
N2821      N2827   1.309       .  A
N2821      N2822   1.323       .  A
N2821     Mn2851   2.192       .  S
N2822      C2830   1.355       .  A
N2823      N2824   1.327       .  A
N2823      N2825   1.316       .  A
N2823     Mn2829   2.214       .  S
N2824      C2831   1.353       .  A
N2825      N2826   1.320       .  A
N2825     Mn2851   2.187       .  S
N2826      C2831   1.349       .  A
N2827      N2828   1.320       .  A
N2827     Mn2829   2.188       .  S
N2828      C2830   1.352       .  A
Mn2829    Cl2853   2.495       .  S
C2830      C3932   1.476       .  S
C2831      C4075   1.488       .  S
N2832      N2833   1.323       .  A
N2832     Mn2840   2.213       .  S
N2833      C2841   1.354       .  A
N2834      N4196   1.322       .  A
N2834      N2835   1.321   1_565  A
N2835      C2842   1.352       .  A
N2836      N4194   1.322       .  A
N2836      N4197   1.325       .  A
N2836     Mn2840   2.238       .  S
N2837      N4196   1.325       .  A
N2837      C2842   1.358   1_565  A
N2838     Mn2852   2.198       .  S
N2839      C2841   1.353       .  A
C2841      C3912   1.482       .  S
C2842      C3922   1.486       .  S
N2843      N2844   1.315   1_565  A
N2843      N2849   1.313   1_565  A
N2843     Mn4211   2.162       .  S
N2844      C2854   1.345       .  A
N2845      N2846   1.319       .  A
N2845      N2847   1.319       .  A
N2845     Mn2852   2.222       .  S
N2846      C2855   1.354       .  A
N2847      N2848   1.317       .  A
N2847     Mn2851   2.179       .  S
N2848      C2855   1.348       .  A
N2849      N2850   1.322       .  A
N2849     Mn4212   2.202   1_545  S
N2850      C2854   1.355       .  A
Mn2851     N4203   2.162       .  S
Mn2851    Cl2853   2.556       .  S
Mn2852     N4209   2.202       .  S
Mn2852    Cl2853   2.523       .  S
C2854      C3942   1.465       .  S
C2855      C3902   1.464       .  S
N2856      N2857   1.335       .  A
N2856      N2862   1.316       .  A
N2856     Mn2885   2.241       .  S
N2857      C2864   1.361       .  A
N2858      N2860   1.317       .  A
N2858      N2859   1.327       .  A
N2858     Mn2874   2.254       .  S
N2859      C2865   1.361       .  A
N2860      N2861   1.312       .  A
N2860     Mn2885   2.147       .  S
N2861      C2865   1.343       .  A
N2862      N2863   1.310       .  A
N2862     Mn2874   2.172       .  S
N2863      C2864   1.335       .  A
C2864      C3985   1.495       .  S
C2865      C3952   1.471       .  S
N2866      N2872   1.311       .  A
N2866      N2867   1.321       .  A
N2866     Mn2896   2.196       .  S
N2867      C2875   1.354       .  A
N2868      N2869   1.323       .  A
N2868      N2870   1.314       .  A
N2868     Mn2874   2.207       .  S
N2869      C2876   1.353       .  A
N2870      N2871   1.324       .  A
N2870     Mn2896   2.198       .  S
N2871      C2876   1.353       .  A
N2872      N2873   1.320       .  A
N2872     Mn2874   2.187       .  S
N2873      C2875   1.353       .  A
Mn2874    Cl2898   2.496       .  S
C2875      C3935   1.477       .  S
C2876      C4025   1.489       .  S
N2877      N2878   1.318       .  A
N2877      N2883   1.315       .  A
N2877     Mn2885   2.186       .  S
N2878      C2886   1.348       .  A
N2879      N2881   1.324       .  A
N2879      N2880   1.322       .  A
N2879     Mn2897   2.237       .  S
N2880      C2887   1.354       .  A
N2881      N2882   1.325       .  A
N2881     Mn2885   2.235       .  S
N2882      C2887   1.357       .  A
N2883      N2884   1.320       .  A
N2883     Mn2897   2.194       .  S
N2884      C2886   1.354       .  A
Mn2885    Cl2898   2.555       .  S
C2886      C3882   1.471       .  S
C2887      C3925   1.487       .  S
N2888      N2889   1.312       .  A
N2888      N2894   1.313       .  A
N2888     Mn2896   2.161       .  S
N2889      C2899   1.344       .  A
N2890      N2891   1.329       .  A
N2890      N2892   1.319       .  A
N2890     Mn2897   2.258       .  S
N2891      C2900   1.363       .  A
N2892      N2893   1.316       .  A
N2892     Mn2896   2.189       .  S
N2893      C2900   1.349       .  A
N2894      N2895   1.323       .  A
N2894     Mn2897   2.203       .  S
N2895      C2899   1.356       .  A
Mn2896    Cl2898   2.543       .  S
Mn2897    Cl2898   2.540       .  S
C2899      C3945   1.464       .  S
C2900      C3892   1.491       .  S
N2901      N2902   1.322       .  A
N2901      N2907   1.317       .  A
N2901     Mn2930   2.208       .  S
N2902      C2909   1.352       .  A
N2903      N2905   1.321       .  A
N2903      N2904   1.319       .  A
N2903     Mn2919   2.214       .  S
N2904      C2910   1.352       .  A
N2905      N2906   1.320       .  A
N2905     Mn2930   2.211       .  S
N2906      C2910   1.354       .  A
N2907      N2908   1.325       .  A
N2907     Mn2919   2.231       .  S
N2908      C2909   1.359       .  A
C2909      C3895   1.491       .  S
C2910      C3842   1.477       .  S
N2911      N2912   1.314       .  A
N2911     Mn2941   2.161       .  S
N2912      C2920   1.344       .  A
N2913      N2914   1.323   1_655  A
N2913     Mn2919   2.223       .  S
N2915      N2916   1.313       .  A
N2915     Mn2941   2.179       .  S
N2916      C2921   1.347       .  A
N2917      N2918   1.328   1_655  A
N2917     Mn2919   2.236       .  S
Mn2919    Cl2943   2.544       .  S
C2920      C3865   1.479       .  S
C2921      C3885   1.471       .  S
N2922      N2923   1.331       .  A
N2922      N2928   1.310       .  A
N2922     Mn2930   2.242       .  S
N2923      C2931   1.368       .  A
N2924      N2926   1.316       .  A
N2924      N2925   1.328       .  A
N2924     Mn2942   2.258       .  S
N2925      C2932   1.364       .  A
N2926      N2927   1.313       .  A
N2926     Mn2930   2.150       .  S
N2927      C2932   1.344       .  A
N2928      N2929   1.304       .  A
N2928     Mn2942   2.140       .  S
N2929      C2931   1.330       .  A
Mn2930    Cl2943   2.560       .  S
C2931      C3822   1.467       .  S
C2932      C3852   1.479       .  S
N2933      N2934   1.321       .  A
N2933     Mn2941   2.206       .  S
N2934      C2944   1.355       .  A
N2935      N2936   1.322   1_455  A
N2935     Mn2942   2.200   1_455  S
N2937      N2938   1.327       .  A
N2937     Mn2941   2.206       .  S
N2938      C2945   1.356       .  A
N2939      N2940   1.320       .  A
N2939     Mn2942   2.175   1_455  S
Mn2942    Cl2943   2.505       .  S
C2944      C3832   1.479       .  S
C2945      C3872   1.494       .  S
N2946      N2947   1.321       .  A
N2946      N2952   1.318       .  A
N2946     Mn2975   2.210       .  S
N2947      C2954   1.352       .  A
N2948      N2950   1.322       .  A
N2948      N2949   1.320       .  A
N2948     Mn4324   2.221       .  S
N2949      C2955   1.353       .  A
N2950      N2951   1.321       .  A
N2950     Mn4335   2.214   1_545  S
N2951      C2955   1.354       .  A
N2952      N2953   1.325       .  A
N2952     Mn2964   2.221       .  S
N2953      C2954   1.356       .  A
C2954      C3915   1.483       .  S
C2955      C3835   1.480       .  S
N2956      N2962   1.314       .  A
N2956      N2957   1.313       .  A
N2956     Mn4346   2.160   1_545  S
N2957      C2965   1.344       .  A
N2958      N2959   1.323       .  A
N2958      N2960   1.318       .  A
N2958     Mn2964   2.222       .  S
N2959      C2966   1.357       .  A
N2960      N2961   1.312       .  A
N2960     Mn2986   2.171       .  S
N2961      C2966   1.346       .  A
N2962      N2963   1.327       .  A
N2962     Mn4324   2.233       .  S
N2963      C2965   1.362       .  A
Mn2964     N4308   2.221       .  S
Mn2964     N4322   2.233       .  S
Mn2964    Cl2988   2.530       .  S
C2965      C3855   1.479       .  S
C2966      C3905   1.465       .  S
N2967      N2968   1.332       .  A
N2967      N2973   1.310       .  A
N2967     Mn2975   2.244       .  S
N2968      C2976   1.368       .  A
N2969      N2971   1.315       .  A
N2969      N2970   1.329       .  A
N2969     Mn2987   2.263       .  S
N2970      C2977   1.364       .  A
N2971      N2972   1.313       .  A
N2971     Mn2975   2.148       .  S
N2972      C2977   1.344       .  A
N2973      N2974   1.304       .  A
N2973     Mn2987   2.144       .  S
N2974      C2976   1.329       .  A
Mn2975     N4310   2.214       .  S
Mn2975    Cl2988   2.556       .  S
C2976      C3812   1.469       .  S
C2977      C3862   1.480       .  S
N2978      N2979   1.320       .  A
N2978      N2984   1.310       .  A
N2978     Mn2986   2.200       .  S
N2979      C2989   1.354       .  A
N2980      N2981   1.322       .  A
N2980      N2982   1.311       .  A
N2980     Mn2987   2.198       .  S
N2981      C2990   1.350       .  A
N2982      N2983   1.325       .  A
N2982     Mn2986   2.197       .  S
N2983      C2990   1.355       .  A
N2984      N2985   1.319       .  A
N2984     Mn2987   2.174       .  S
N2985      C2989   1.353       .  A
Mn2986     N4316   2.160       .  S
Mn2986    Cl2988   2.539       .  S
Mn2987    Cl2988   2.509       .  S
C2989      C3845   1.476       .  S
C2990      C5162   1.491       .  S
N2991      N2992   1.326       .  A
N2991      N2997   1.312       .  A
N2991     Mn3020   2.205       .  S
N2992      C2999   1.356       .  A
N2993      N2995   1.310       .  A
N2993      N2994   1.320       .  A
N2993     Mn3009   2.175       .  S
N2994      C3000   1.353       .  A
N2995     Mn3020   2.203       .  S
N2997      N2998   1.322       .  A
N2997     Mn3009   2.200       .  S
N2998      C2999   1.350       .  A
C2999      C3875   1.494       .  S
N3001      N3007   1.317       .  A
N3001      N3002   1.313       .  A
N3001     Mn3031   2.152       .  S
N3002      C3010   1.345       .  A
N3003      N3004   1.304       .  A
N3003      N3005   1.310       .  A
N3003     Mn3009   2.140       .  S
N3004      C3011   1.329       .  A
N3005      N3006   1.332       .  A
N3005     Mn3031   2.246       .  S
N3006      C3011   1.368       .  A
N3007      N3008   1.327       .  A
N3007     Mn3009   2.256       .  S
N3008      C3010   1.362       .  A
Mn3009    Cl3033   2.497       .  S
C3010      C3792   1.477       .  S
C3011      C3815   1.468       .  S
N3012      N3018   1.318       .  A
N3012     Mn3020   2.179       .  S
N3014      N3016   1.313       .  A
N3014      N3015   1.325       .  A
N3014     Mn3032   2.225       .  S
N3015      C3022   1.360       .  A
N3016      N3017   1.313       .  A
N3016     Mn3020   2.158       .  S
N3017      C3022   1.344       .  A
N3018      N3019   1.321       .  A
N3018     Mn3032   2.215       .  S
N3019      C3021   1.355       .  A
Mn3020    Cl3033   2.540       .  S
N3023      N3024   1.320       .  A
N3023      N3029   1.321       .  A
N3023     Mn3031   2.209       .  S
N3024      C3034   1.354       .  A
N3025      N3026   1.323       .  A
N3025      N3027   1.317       .  A
N3025     Mn3032   2.216       .  S
N3026      C3035   1.355       .  A
N3027      N3028   1.324       .  A
N3027     Mn3031   2.222       .  S
N3028      C3035   1.355       .  A
N3029      N3030   1.319       .  A
N3029     Mn3032   2.213       .  S
N3030      C3034   1.352       .  A
Mn3031    Cl3033   2.567       .  S
Mn3032    Cl3033   2.529       .  S
C3034      C3772   1.476       .  S
C3035      C3742   1.488       .  S
N3036      N3037   1.325       .  A
N3036      N3042   1.312       .  A
N3036     Mn3065   2.200       .  S
N3037      C3044   1.355       .  A
N3038      N3040   1.310       .  A
N3038      N3039   1.319       .  A
N3038     Mn3054   2.173       .  S
N3039      C3045   1.352       .  A
N3040      N3041   1.320       .  A
N3040     Mn3065   2.202       .  S
N3041      C3045   1.355       .  A
N3042      N3043   1.322       .  A
N3042     Mn3054   2.198       .  S
N3043      C3044   1.350       .  A
C3044      C3805   1.491       .  S
C3045      C3775   1.476       .  S
N3046      N3052   1.316       .  A
N3046      N3047   1.312       .  A
N3046     Mn3076   2.149       .  S
N3047      C3055   1.344       .  A
N3048      N3049   1.304       .  A
N3048      N3050   1.311       .  A
N3048     Mn3054   2.142       .  S
N3049      C3056   1.329       .  A
N3050      N3051   1.332       .  A
N3050     Mn3076   2.246       .  S
N3051      C3056   1.368       .  A
N3052      N3053   1.327       .  A
N3052     Mn3054   2.256       .  S
N3053      C3055   1.362       .  A
Mn3054    Cl3078   2.494       .  S
C3055      C3782   1.477       .  S
C3056      C3825   1.469       .  S
N3057      N3058   1.314       .  A
N3057      N3063   1.318       .  A
N3057     Mn3065   2.175       .  S
N3058      C3066   1.347       .  A
N3059      N3061   1.314       .  A
N3059      N3060   1.326       .  A
N3059     Mn3077   2.226       .  S
N3060      C3067   1.360       .  A
N3061      N3062   1.313       .  A
N3061     Mn3065   2.159       .  S
N3062      C3067   1.344       .  A
N3063      N3064   1.321       .  A
N3063     Mn3077   2.216       .  S
N3064      C3066   1.355       .  A
Mn3065    Cl3078   2.540       .  S
C3066      C3735   1.463       .  S
C3067      C3795   1.476   1_545  S
N3068      N3069   1.321       .  A
N3068      N3074   1.321       .  A
N3068     Mn3076   2.212       .  S
N3069      C3079   1.354       .  A
N3070      N3071   1.323       .  A
N3070      N3072   1.317       .  A
N3070     Mn3077   2.216       .  S
N3071      C3080   1.355       .  A
N3072      N3073   1.324       .  A
N3072     Mn3076   2.220       .  S
N3073      C3080   1.355       .  A
N3074      N3075   1.319       .  A
N3074     Mn3077   2.215       .  S
N3075      C3079   1.352       .  A
Mn3076    Cl3078   2.566       .  S
Mn3077    Cl3078   2.530       .  S
C3079      C3765   1.477   1_545  S
C3080      C3722   1.488       .  S
N3081      N3082   1.309       .  A
N3081      N3087   1.317       .  A
N3081     Mn3110   2.158       .  S
N3082      C3089   1.343       .  A
N3083      N3085   1.314       .  A
N3083      N3084   1.328       .  A
N3083     Mn3099   2.236       .  S
N3084      C3090   1.362       .  A
N3085      N3086   1.314       .  A
N3085     Mn3110   2.164       .  S
N3086      C3090   1.344       .  A
N3087      N3088   1.323       .  A
N3087     Mn3099   2.215       .  S
N3088      C3089   1.357       .  A
C3089      C4015   1.458       .  S
C3090      C3702   1.481       .  S
N3091      N3097   1.321       .  A
N3091     Mn3121   2.210       .  S
N3092      C3100   1.353       .  A
N3093      N3094   1.326       .  A
N3093      N3095   1.317       .  A
N3093     Mn3099   2.225       .  S
N3095     Mn3121   2.218       .  S
N3096      C3101   1.354       .  A
N3097      N3098   1.319       .  A
N3097     Mn3099   2.213       .  S
Mn3099    Cl3123   2.540       .  S
C3100      C3672   1.475       .  S
C3101      C4005   1.490       .  S
N3102      N3103   1.324       .  A
N3102      N3108   1.312       .  A
N3102     Mn3110   2.191       .  S
N3103      C3111   1.355       .  A
N3104      N3106   1.310       .  A
N3104      N3105   1.319       .  A
N3104     Mn3122   2.169       .  S
N3105      C4472   1.352       .  A
N3106      N3107   1.320       .  A
N3106     Mn3110   2.201       .  S
N3107      C4472   1.354       .  A
N3108      N3109   1.320       .  A
N3108     Mn3122   2.195       .  S
N3109      C3111   1.349       .  A
Mn3110    Cl3123   2.533       .  S
C3111      C3712   1.485       .  S
C3112      N4465   1.352       .  A
C3112      N4467   1.354       .  A
C3112      C3685   1.475       .  S
N3113      N3119   1.315       .  A
N3113     Mn3121   2.149       .  S
N3114      C4484   1.344       .  A
N3115      N3116   1.304       .  A
N3115      N3117   1.310       .  A
N3115     Mn3122   2.141       .  S
N3116      C3125   1.329       .  A
N3117     Mn3121   2.251       .  S
N3119      N3120   1.327       .  A
N3119     Mn3122   2.256       .  S
Mn3121    Cl3123   2.561       .  S
Mn3122    Cl3123   2.500       .  S
C3124      N4474   1.344       .  A
C3124      C3692   1.479       .  S
C3125      C3662   1.470       .  S
N3126      N3127   1.315       .  A
N3126      N3132   1.317       .  A
N3126     Mn3155   2.185       .  S
N3127      C3134   1.350       .  A
N3128      N3130   1.313       .  A
N3128      N3129   1.326       .  A
N3128     Mn3144   2.223       .  S
N3129      C3135   1.361       .  A
N3130      N3131   1.314       .  A
N3130     Mn3155   2.166       .  S
N3131      C3135   1.345       .  A
N3132      N3133   1.320       .  A
N3132     Mn3144   2.202       .  S
N3133      C3134   1.353       .  A
C3134      C3965   1.460       .  S
C3135      C3695   1.478       .  S
N3136      N3142   1.321       .  A
N3136      N3137   1.322       .  A
N3136     Mn3166   2.220       .  S
N3137      C3145   1.355       .  A
N3138      N3139   1.321       .  A
N3138      N3140   1.316       .  A
N3138     Mn3144   2.206       .  S
N3139      C3146   1.353       .  A
N3140      N3141   1.322       .  A
N3140     Mn3166   2.209       .  S
N3141      C3146   1.352       .  A
N3142      N3143   1.318       .  A
N3142     Mn3144   2.201       .  S
N3143      C3145   1.350       .  A
Mn3144    Cl3168   2.530       .  S
C3145      C3682   1.475       .  S
C3146      C3975   1.474       .  S
N3147      N3148   1.327       .  A
N3147      N3153   1.313       .  A
N3147     Mn3155   2.205       .  S
N3148      C3156   1.356       .  A
N3149      N3151   1.310       .  A
N3149      N3150   1.318       .  A
N3149     Mn3167   2.166       .  S
N3150      C3157   1.352       .  A
N3151      N3152   1.320       .  A
N3151     Mn3155   2.199       .  S
N3152      C3157   1.354       .  A
N3153      N3154   1.320       .  A
N3153     Mn3167   2.197       .  S
N3154      C3156   1.348       .  A
Mn3155    Cl3168   2.539       .  S
C3156      C3652   1.491       .  S
C3157      C3675   1.474       .  S
N3158      N3159   1.313       .  A
N3158      N3164   1.315       .  A
N3158     Mn3166   2.152       .  S
N3159      C3169   1.344       .  A
N3160      N3161   1.304       .  A
N3160      N3162   1.311       .  A
N3160     Mn3167   2.143       .  S
N3161      C3170   1.331       .  A
N3162      N3163   1.331       .  A
N3162     Mn3166   2.240       .  S
N3163      C3170   1.368       .  A
N3164      N3165   1.328       .  A
N3164     Mn3167   2.256       .  S
N3165      C3169   1.364       .  A
Mn3166    Cl3168   2.554       .  S
Mn3167    Cl3168   2.508       .  S
C3169      C3705   1.481       .  S
C3170      C3642   1.466       .  S
N3171      N3177   1.311   1_455  A
N3172      C3179   1.368       .  A
N3173      N3175   1.316   1_655  A
N3173      N3174   1.327       .  A
N3173     Mn3189   2.255   1_545  S
N3174      C3180   1.362   1_655  A
N3177      N3178   1.304       .  A
N3177     Mn4549   2.144       .  S
C3179      C5025   1.472       .  S
N3181      N3187   1.310       .  A
N3181      N3182   1.321       .  A
N3181     Mn4571   2.206   1_545  S
N3182      C3190   1.356       .  A
N3183      N3184   1.322       .  A
N3183      N3185   1.311       .  A
N3183     Mn4549   2.194       .  S
N3184      C3191   1.350       .  A
N3185      N3186   1.325       .  A
N3185     Mn3211   2.199       .  S
N3186      C3191   1.356       .  A
N3187      N3188   1.319       .  A
N3187     Mn3189   2.174   1_545  S
N3188      C3190   1.353       .  A
Mn3189     N4537   2.144       .  S
Mn3189     N4543   2.194       .  S
Mn3189    Cl4573   2.502       .  S
C3190      C3612   1.478       .  S
C3191      C3655   1.490       .  S
N3192      N3193   1.323       .  A
N3192     Mn3200   2.220       .  S
N3193      C3201   1.354       .  A
N3194      N3195   1.319       .  A
N3194     Mn3212   2.215       .  S
N3196      N3197   1.322       .  A
N3196     Mn3200   2.216       .  S
N3197      C3202   1.355       .  A
N3198      N3199   1.324       .  A
N3198     Mn3212   2.215       .  S
C3201      C3592   1.486       .  S
C3202      C3602   1.478       .  S
N3203      N3204   1.314       .  A
N3203      N3209   1.314       .  A
N3203     Mn3211   2.162       .  S
N3204      C3214   1.344       .  A
N3205      N3206   1.321       .  A
N3205      N3207   1.318       .  A
N3205     Mn3212   2.217       .  S
N3206      C3215   1.355       .  A
N3207      N3208   1.315       .  A
N3207     Mn3211   2.181       .  S
N3208      C3215   1.348       .  A
N3209      N3210   1.325       .  A
N3209     Mn3212   2.221       .  S
N3210      C3214   1.359       .  A
Mn3211     N4541   2.206       .  S
Mn3211    Cl3213   2.545       .  S
Mn3212    Cl3213   2.523       .  S
Cl3213    Mn4549   2.502       .  S
C3214      C3632   1.473       .  S
C3215      C3582   1.465       .  S
N3216      N3217   1.331       .  A
N3216      N3222   1.311       .  A
N3216     Mn3245   2.242       .  S
N3217      C3224   1.366       .  A
N3218      N3220   1.316       .  A
N3218      N3219   1.326       .  A
N3218     Mn3234   2.248       .  S
N3219      C3225   1.361       .  A
N3220      N3221   1.313       .  A
N3220     Mn3245   2.150       .  S
N3221      C3225   1.345       .  A
N3222      N3223   1.304       .  A
N3222     Mn3234   2.146       .  S
N3223      C3224   1.330       .  A
C3224      C3645   1.469       .  S
C3225      C3635   1.474       .  S
N3226      N3232   1.310       .  A
N3226      N3227   1.320       .  A
N3226     Mn3256   2.203       .  S
N3227      C3235   1.355       .  A
N3228      N3229   1.321       .  A
N3228      N3230   1.311       .  A
N3228     Mn3234   2.190       .  S
N3229      C3236   1.349       .  A
N3230      N3231   1.324       .  A
N3230     Mn3256   2.194       .  S
N3231      C3236   1.355       .  A
N3232      N3233   1.319       .  A
N3232     Mn3234   2.174       .  S
N3233      C3235   1.353       .  A
Mn3234    Cl3258   2.504       .  S
C3235      C3605   1.478       .  S
C3236      C3715   1.485       .  S
N3237      N3238   1.322       .  A
N3237      N3243   1.317       .  A
N3237     Mn3245   2.215       .  S
N3238      C3246   1.353       .  A
N3239      N3241   1.321       .  A
N3239      N3240   1.319       .  A
N3239     Mn3257   2.216       .  S
N3240      C3247   1.352       .  A
N3241      N3242   1.321       .  A
N3241     Mn3245   2.215       .  S
N3242      C3247   1.355       .  A
N3243      N3244   1.324       .  A
N3243     Mn3257   2.215       .  S
N3244      C3246   1.355       .  A
Mn3245    Cl3258   2.559       .  S
C3246      C3572   1.484       .  S
C3247      C3615   1.479       .  S
N3248      N3249   1.314       .  A
N3248      N3254   1.314       .  A
N3248     Mn3256   2.162       .  S
N3249      C3259   1.344       .  A
N3250      N3251   1.321       .  A
N3250      N3252   1.318       .  A
N3250     Mn3257   2.216       .  S
N3251      C3260   1.355       .  A
N3252      N3253   1.314       .  A
N3252     Mn3256   2.176       .  S
N3253      C3260   1.347       .  A
N3254      N3255   1.325       .  A
N3254     Mn3257   2.223       .  S
N3255      C3259   1.360       .  A
Mn3256    Cl3258   2.543       .  S
Mn3257    Cl3258   2.524       .  S
C3259      C3625   1.475       .  S
C3260      C3562   1.463       .  S
N3261      N3262   1.323       .  A
N3261      N3267   1.317       .  A
N3261     Mn3290   2.219       .  S
N3262      C3269   1.354       .  A
N3263      N3265   1.323       .  A
N3263      N3264   1.317       .  A
N3263     Mn3279   2.206       .  S
N3264      C3270   1.349       .  A
N3265      N3266   1.322       .  A
N3265     Mn3290   2.223       .  S
N3266      C3270   1.356       .  A
N3267      N3268   1.323       .  A
N3267     Mn3279   2.207       .  S
N3268      C3269   1.354       .  A
C3269      C3575   1.484       .  S
C3270      C3522   1.474       .  S
N3271      N3272   1.314       .  A
N3271     Mn3301   2.161       .  S
N3272      C3280   1.345       .  A
N3273      N3274   1.320       .  A
N3273     Mn3279   2.214       .  S
N3275      N3276   1.316       .  A
N3275     Mn3301   2.184       .  S
N3276      C3281   1.349       .  A
N3277      N3278   1.325       .  A
N3277     Mn3279   2.215       .  S
Mn3279    Cl3303   2.523       .  S
C3280      C3542   1.475       .  S
C3281      C3565   1.463       .  S
N3282      N3283   1.336       .  A
N3282      N3288   1.312       .  A
N3282     Mn3290   2.260       .  S
N3283      C3291   1.369       .  A
N3284      N3286   1.318       .  A
N3284      N3285   1.324       .  A
N3284     Mn3302   2.239       .  S
N3285      C3292   1.360       .  A
N3286      N3287   1.313       .  A
N3286     Mn3290   2.168       .  S
N3287      C3292   1.346       .  A
N3288      N3289   1.307       .  A
N3288     Mn3302   2.132       .  S
N3289      C3291   1.332       .  A
Mn3290    Cl3303   2.560       .  S
C3291      C3502   1.479       .  S
C3292      C3532   1.474       .  S
N3293      N3294   1.322       .  A
N3293     Mn3301   2.193       .  S
N3294      C3304   1.355       .  A
N3295      N3296   1.324       .  A
N3295     Mn3302   2.203       .  S
N3297      N3298   1.323       .  A
N3297     Mn3301   2.195       .  S
N3298      C3305   1.351       .  A
N3299      N3300   1.317       .  A
N3299     Mn3302   2.164       .  S
Mn3302    Cl3303   2.510       .  S
C3304      C3512   1.474       .  S
C3305      C3552   1.488       .  S
N3306      N3307   1.316       .  A
N3306      N3312   1.319       .  A
N3306     Mn3335   2.181       .  S
N3307      C3314   1.348       .  A
N3308      N3310   1.313       .  A
N3308      N3309   1.326       .  A
N3308     Mn3324   2.225       .  S
N3309      C3315   1.360       .  A
N3310      N3311   1.314       .  A
N3310     Mn3335   2.159       .  S
N3311      C3315   1.344       .  A
N3312      N3313   1.320       .  A
N3312     Mn3324   2.215       .  S
N3313      C3314   1.354       .  A
C3314      C3732   1.462       .  S
C3315      C4842   1.478   1_545  S
N3316      N3322   1.321       .  A
N3316     Mn3346   2.214       .  S
N3317      C3325   1.354       .  A
N3318      N3319   1.325       .  A
N3318      N3320   1.317       .  A
N3318     Mn3324   2.217       .  S
N3320     Mn3346   2.215       .  S
N3321      C3326   1.353       .  A
N3322      N3323   1.319       .  A
N3322     Mn3324   2.213       .  S
Mn3324    Cl3348   2.540       .  S
C3325      C4822   1.476   1_545  S
C3326      C3725   1.488       .  S
N3327      N3328   1.324       .  A
N3327      N3333   1.317       .  A
N3327     Mn3335   2.201       .  S
N3328      C3336   1.352       .  A
N3329      N3331   1.309       .  A
N3329      N3330   1.319       .  A
N3329     Mn3347   2.178       .  S
N3330      C3337   1.353       .  A
N3331      N3332   1.321       .  A
N3331     Mn3335   2.193       .  S
N3332      C3337   1.354       .  A
N3333      N3334   1.326       .  A
N3333     Mn3347   2.211       .  S
N3334      C3336   1.351       .  A
Mn3335    Cl3348   2.539       .  S
C3336      C3452   1.493       .  S
C3337      C3472   1.477       .  S
N3338      N3344   1.318       .  A
N3338     Mn3346   2.170       .  S
N3339      C3349   1.345       .  A
N3340      N3341   1.306       .  A
N3340      N3342   1.312       .  A
N3340     Mn3347   2.132       .  S
N3341      C3350   1.333       .  A
N3342     Mn3346   2.249       .  S
N3344      N3345   1.326       .  A
N3344     Mn3347   2.246       .  S
Mn3346    Cl3348   2.558       .  S
Mn3347    Cl3348   2.516       .  S
C3349      C3492   1.478       .  S
C3350      C3555   1.473       .  S
N3351      N3352   1.323       .  A
N3351      N3357   1.317       .  A
N3351     Mn3380   2.218       .  S
N3352      C3359   1.354       .  A
N3353      N3355   1.322       .  A
N3353      N3354   1.317       .  A
N3353     Mn3369   2.204       .  S
N3354      C3360   1.349       .  A
N3355      N3356   1.321       .  A
N3355     Mn3380   2.220       .  S
N3356      C3360   1.356       .  A
N3357      N3358   1.323       .  A
N3357     Mn3369   2.207       .  S
N3358      C3359   1.354       .  A
C3359      C3595   1.485       .  S
C3360      C3515   1.474       .  S
N3361      N3367   1.312       .  A
N3361      N3362   1.314       .  A
N3361     Mn3391   2.161       .  S
N3362      C3370   1.345       .  A
N3363      N3364   1.320       .  A
N3363      N3365   1.319       .  A
N3363     Mn3369   2.214       .  S
N3364      C3371   1.354       .  A
N3365      N3366   1.317       .  A
N3365     Mn3391   2.188       .  S
N3366      C3371   1.350       .  A
N3367      N3368   1.325       .  A
N3367     Mn3369   2.215       .  S
N3368      C3370   1.359       .  A
Mn3369    Cl3393   2.529       .  S
C3370      C3535   1.475       .  S
C3371      C3585   1.465       .  S
N3372      N3373   1.336       .  A
N3372      N3378   1.312       .  A
N3372     Mn3380   2.260       .  S
N3373      C3381   1.369       .  A
N3374      N3376   1.318       .  A
N3374      N3375   1.324       .  A
N3374     Mn4752   2.239       .  S
N3375      C3382   1.360       .  A
N3376      N3377   1.314       .  A
N3376     Mn4740   2.169   1_545  S
N3377      C3382   1.346       .  A
N3378      N3379   1.307       .  A
N3378     Mn3392   2.133       .  S
N3379      C3381   1.332       .  A
Mn3380     N4736   2.169       .  S
Mn3380    Cl3393   2.566       .  S
C3381      C3455   1.479       .  S
C3382      C3545   1.475       .  S
N3383      N3384   1.322       .  A
N3383      N3389   1.309       .  A
N3383     Mn4751   2.195   1_545  S
N3384      C3394   1.355       .  A
N3385      N3386   1.324       .  A
N3385      N3387   1.317       .  A
N3385     Mn3392   2.203       .  S
N3386      C3395   1.349       .  A
N3387      N3388   1.324       .  A
N3387     Mn3391   2.200       .  S
N3388      C3395   1.352       .  A
N3389      N3390   1.317       .  A
N3389     Mn4752   2.167       .  S
N3390      C3394   1.350       .  A
Mn3391     N4743   2.195       .  S
Mn3391    Cl3393   2.545       .  S
Mn3392     N4734   2.239       .  S
Mn3392     N4749   2.167       .  S
Mn3392    Cl3393   2.505       .  S
C3394      C3525   1.474       .  S
C3395      C3442   1.489       .  S
N3396      N3397   1.316       .  A
N3396      N3402   1.319       .  A
N3396     Mn3425   2.183       .  S
N3397      C3404   1.348       .  A
N3398      N3400   1.313       .  A
N3398      N3399   1.326       .  A
N3398     Mn3414   2.225       .  S
N3399      C3405   1.360       .  A
N3400      N3401   1.314       .  A
N3400     Mn3425   2.160       .  S
N3401      C3405   1.344       .  A
N3402      N3403   1.320       .  A
N3402     Mn3414   2.217       .  S
N3403      C3404   1.355       .  A
C3404      C3755   1.463       .  S
C3405      C3495   1.477       .  S
N3406      N3412   1.322       .  A
N3406      N3407   1.320       .  A
N3406     Mn3436   2.215       .  S
N3407      C3415   1.354       .  A
N3408      N3409   1.325       .  A
N3408      N3410   1.317       .  A
N3408     Mn3414   2.219       .  S
N3409      C3416   1.356       .  A
N3410      N3411   1.322       .  A
N3410     Mn3436   2.218       .  S
N3411      C3416   1.353       .  A
N3412      N3413   1.319       .  A
N3412     Mn3414   2.215       .  S
N3413      C3415   1.352       .  A
Mn3414    Cl3438   2.533       .  S
C3415      C3475   1.477       .  S
C3416      C3745   1.489       .  S
N3417      N3418   1.323       .  A
N3417      N3423   1.316       .  A
N3417     Mn3425   2.199       .  S
N3418      C3426   1.352       .  A
N3419      N3421   1.309       .  A
N3419      N3420   1.319       .  A
N3419     Mn3437   2.176       .  S
N3420      C3427   1.352       .  A
N3421      N3422   1.321       .  A
N3421     Mn3425   2.192       .  S
N3422      C3427   1.354       .  A
N3423      N3424   1.326       .  A
N3423     Mn3437   2.212       .  S
N3424      C3426   1.351       .  A
Mn3425    Cl3438   2.546       .  S
C3426      C3505   1.494       .  S
C3427      C3465   1.477       .  S
N3428      N3429   1.314       .  A
N3428      N3434   1.318       .  A
N3428     Mn3436   2.171       .  S
N3429      C3439   1.346       .  A
N3430      N3431   1.306       .  A
N3430      N3432   1.311       .  A
N3430     Mn3437   2.131       .  S
N3431      C3440   1.333       .  A
N3432      N3433   1.334       .  A
N3432     Mn3436   2.250       .  S
N3433      C3440   1.368       .  A
N3434      N3435   1.326       .  A
N3434     Mn3437   2.244       .  S
N3435      C3439   1.361       .  A
Mn3436    Cl3438   2.555       .  S
Mn3437    Cl3438   2.520       .  S
C3439      C3485   1.477       .  S
C3440      C3445   1.473       .  S
C3441      C3442   1.407       .  A
C3441      C3446   1.407       .  A
C3441      H3447   1.083       .  S
C3442      C3443   1.405       .  A
C3443      C3444   1.400       .  A
C3443      H3448   1.083       .  S
C3444      C3445   1.407       .  A
C3444      H3449   1.084       .  S
C3445      C3446   1.407       .  A
C3446      H3450   1.083       .  S
C3451      C3452   1.405       .  A
C3451      C4816   1.401       .  A
C3451      H3457   1.083       .  S
C3452      C3453   1.408       .  A
C3453      C3454   1.410       .  A
C3453      H3458   1.083       .  S
C3454      C4815   1.408       .  A
C3454      H3459   1.083       .  S
C3455      C4814   1.408       .  A
C3455      C3456   1.407       .  A
C3456      C4811   1.401       .  A
C3456      H3460   1.084       .  S
C3461      C3462   1.405       .  A
C3461      C3466   1.398       .  A
C3462      C4685   1.476       .  S
C3462      C4823   1.403       .  A
C3463      C4822   1.403       .  A
C3463      C4824   1.397       .  A
C3463      H3468   1.083   1_565  S
C3464      C4823   1.397       .  A
C3464      C3465   1.405       .  A
C3464      H3469   1.082       .  S
C3465      C3466   1.404       .  A
C3466      H3470   1.083       .  S
C3471      C3472   1.404       .  A
C3471      C3476   1.399       .  A
C3471      H3477   1.083       .  S
C3472      C3473   1.405       .  A
C3473      C3474   1.397       .  A
C3473      H3478   1.082       .  S
C3474      C3475   1.403       .  A
C3474      H3479   1.083       .  S
C3475      C3476   1.405       .  A
C3476      H3480   1.082       .  S
C3481      C3482   1.400       .  A
C3481      C3486   1.398       .  A
C3481      H3487   1.082       .  S
C3482      C4675   1.478       .  S
C3482      C4843   1.410       .  A
C3483      C4842   1.410       .  A
C3483      C4844   1.397       .  A
C3483      H3488   1.083   1_565  S
C3484      C4843   1.397       .  A
C3484      C3485   1.399       .  A
C3484      H3489   1.082       .  S
C3485      C3486   1.410       .  A
C3486      H3490   1.083       .  S
C3491      C3492   1.400       .  A
C3491      C3496   1.399       .  A
C3492      C3493   1.410       .  A
C3493      C3494   1.397       .  A
C3493      H3498   1.083       .  S
C3494      C3495   1.399       .  A
C3494      H3499   1.082       .  S
C3495      C3496   1.410       .  A
C3496      H3500   1.083       .  S
C3501      C3502   1.407       .  A
C3501      C3506   1.401       .  A
C3501      H3507   1.084       .  S
C3502      C3503   1.409       .  A
C3503      C3504   1.411       .  A
C3503      H3508   1.083       .  S
C3504      C3505   1.409       .  A
C3504      H3509   1.083       .  S
C3505      C3506   1.405       .  A
C3506      H3510   1.083       .  S
C3511      C3512   1.402       .  A
C3511      C3516   1.397       .  A
C3511      H3517   1.083       .  S
C3512      C3513   1.406       .  A
C3513      C3514   1.395       .  A
C3513      H3518   1.082       .  S
C3514      C3515   1.401       .  A
C3514      H3519   1.083       .  S
C3515      C3516   1.406       .  A
C3516      H3520   1.083       .  S
C3521      C3522   1.407       .  A
C3521      C3526   1.397       .  A
C3521      H3527   1.083       .  S
C3522      C3523   1.402       .  A
C3523      C3524   1.396       .  A
C3523      H3528   1.083       .  S
C3524      C3525   1.406       .  A
C3524      H3529   1.082       .  S
C3525      C3526   1.402       .  A
C3526      H3530   1.083       .  S
C3531      C3532   1.409       .  A
C3531      C3536   1.396       .  A
C3531      H3537   1.083       .  S
C3532      C3533   1.400       .  A
C3533      C3534   1.397       .  A
C3533      H3538   1.082       .  S
C3534      C3535   1.409       .  A
C3534      H3539   1.083       .  S
C3535      C3536   1.400       .  A
C3536      H3540   1.082       .  S
C3541      C3542   1.409       .  A
C3541      C3546   1.396       .  A
C3541      H3547   1.083       .  S
C3542      C3543   1.400       .  A
C3543      C3544   1.397       .  A
C3543      H3548   1.082       .  S
C3544      C3545   1.409       .  A
C3544      H3549   1.083       .  S
C3545      C3546   1.400       .  A
C3546      H3550   1.082       .  S
C3551      C3552   1.405       .  A
C3551      C3556   1.400       .  A
C3551      H3557   1.083       .  S
C3553      C3554   1.407       .  A
C3553      H3558   1.083       .  S
C3554      H3559   1.083       .  S
C3555      C3556   1.407       .  A
C3556      H3560   1.084       .  S
C3561      C3562   1.399       .  A
C3561      C3566   1.395       .  A
C3561      H3567   1.083       .  S
C3562      C3563   1.405       .  A
C3563      C3564   1.392       .  A
C3563      H3568   1.083       .  S
C3564      C3565   1.399       .  A
C3564      H3569   1.083       .  S
C3565      C3566   1.405       .  A
C3566      H3570   1.083       .  S
C3571      C3572   1.405       .  A
C3571      C3576   1.403       .  A
C3571      H3577   1.082       .  S
C3572      C3573   1.406       .  A
C3573      C3574   1.402       .  A
C3573      H3578   1.083       .  S
C3574      C3575   1.404       .  A
C3574      H3579   1.083       .  S
C3575      C3576   1.406       .  A
C3576      H3580   1.083       .  S
C3581      C3582   1.400       .  A
C3581      C3586   1.396       .  A
C3581      H3587   1.083       .  S
C3582      C3583   1.405       .  A
C3583      C3584   1.393       .  A
C3583      H3588   1.083       .  S
C3584      C3585   1.399       .  A
C3584      H3589   1.083       .  S
C3585      C3586   1.405       .  A
C3586      H3590   1.083       .  S
C3591      C3592   1.405       .  A
C3591      C3596   1.403       .  A
C3592      C3593   1.406       .  A
C3593      C3594   1.403       .  A
C3593      H3598   1.083       .  S
C3594      C3595   1.405       .  A
C3594      H3599   1.083       .  S
C3595      C3596   1.406       .  A
C3596      H3600   1.083       .  S
C3601      C3602   1.405       .  A
C3601      C3606   1.397       .  A
C3601      H3607   1.082       .  S
C3602      C3603   1.404       .  A
C3603      C3604   1.399       .  A
C3603      H3608   1.083       .  S
C3604      C3605   1.406       .  A
C3604      H3609   1.082       .  S
C3605      C3606   1.403       .  A
C3606      H3610   1.083       .  S
C3611      C3612   1.404       .  A
C3611      C3616   1.398       .  A
C3611      H3617   1.083       .  S
C3612      C3613   1.406       .  A
C3613      C3614   1.399       .  A
C3613      H3618   1.082       .  S
C3614      C3615   1.404       .  A
C3614      H3619   1.083       .  S
C3615      C3616   1.406       .  A
C3616      H3620   1.082       .  S
C3621      C3622   1.399       .  A
C3621      C3626   1.398       .  A
C3621      H3627   1.082       .  S
C3622      C3623   1.410       .  A
C3623      C3624   1.396       .  A
C3623      H3628   1.083       .  S
C3624      C3625   1.399       .  A
C3624      H3629   1.083       .  S
C3625      C3626   1.410       .  A
C3626      H3630   1.083       .  S
C3631      C3632   1.409       .  A
C3631      C3636   1.397       .  A
C3631      H3637   1.083       .  S
C3632      C3633   1.399       .  A
C3633      C3634   1.396       .  A
C3633      H3638   1.083       .  S
C3634      C3635   1.409       .  A
C3634      H3639   1.083       .  S
C3635      C3636   1.400       .  A
C3636      H3640   1.082       .  S
C3641      C3642   1.404       .  A
C3641      C3646   1.398       .  A
C3641      H3647   1.084       .  S
C3642      C3643   1.409       .  A
C3643      C3644   1.403       .  A
C3643      H3648   1.084       .  S
C3644      C3645   1.405       .  A
C3644      H3649   1.083       .  S
C3645      C3646   1.407       .  A
C3646      H3650   1.084       .  S
C3651      C3652   1.405       .  A
C3651      C3656   1.405       .  A
C3651      H3657   1.083       .  S
C3652      C3653   1.409       .  A
C3653      C3654   1.402       .  A
C3653      H3658   1.083       .  S
C3654      C3655   1.404       .  A
C3654      H3659   1.083       .  S
C3655      C3656   1.410       .  A
C3656      H3660   1.083       .  S
C3661      C3666   1.404       .  A
C3661      H3667   1.084       .  S
C3662      C3663   1.404       .  A
C3663      C3664   1.400       .  A
C3663      H3668   1.084       .  S
C3664      C3665   1.408       .  A
C3664      H5029   1.084   1_545  S
C3665      C4539   1.472   1_545  S
C3666      H3670   1.083       .  S
H3669      C5024   1.084       .  S
C3671      C3672   1.405       .  A
C3671      C3676   1.397       .  A
C3672      C3673   1.403       .  A
C3673      C3674   1.396       .  A
C3673      H3678   1.083       .  S
C3674      C3675   1.405       .  A
C3674      H3679   1.082       .  S
C3675      C3676   1.403       .  A
C3676      H3680   1.083       .  S
C3681      C3682   1.403       .  A
C3681      C3686   1.398       .  A
C3681      H3687   1.083       .  S
C3682      C3683   1.405       .  A
C3683      C3684   1.395       .  A
C3683      H3688   1.082       .  S
C3684      C3685   1.403       .  A
C3684      H5049   1.083       .  S
C3685      C3686   1.405       .  A
C3686      H3690   1.082       .  S
H3689      C5044   1.083   1_545  S
C3691      C3692   1.411       .  A
C3691      C3696   1.398       .  A
C3691      H5057   1.083       .  S
C3692      C3693   1.399       .  A
C3693      C3694   1.398       .  A
C3694      C3695   1.410       .  A
C3694      H3699   1.083       .  S
C3695      C3696   1.399       .  A
C3696      H3700   1.083       .  S
H3697      C5051   1.083   1_545  S
C3701      C3702   1.399       .  A
C3701      C3706   1.399       .  A
C3701      H3707   1.083       .  S
C3702      C3703   1.411       .  A
C3703      C3704   1.399       .  A
C3703      H3708   1.083       .  S
C3704      C3705   1.399       .  A
C3704      H3709   1.082       .  S
C3705      C3706   1.411       .  A
C3706      H3710   1.083       .  S
C3711      C3712   1.405       .  A
C3711      C3716   1.402       .  A
C3711      H3717   1.083       .  S
C3712      C3713   1.408       .  A
C3713      C3714   1.400       .  A
C3713      H3718   1.083       .  S
C3714      C3715   1.404       .  A
C3714      H3719   1.083       .  S
C3715      C3716   1.408       .  A
C3716      H3720   1.083       .  S
C3721      C3722   1.405       .  A
C3721      C3726   1.403       .  A
C3721      H3727   1.082       .  S
C3722      C3723   1.407       .  A
C3723      C3724   1.405       .  A
C3723      H3728   1.083       .  S
C3724      C3725   1.406       .  A
C3725      C3726   1.407       .  A
C3726      H3730   1.083       .  S
C3731      C3732   1.405       .  A
C3731      C3736   1.395       .  A
C3731      H3737   1.083       .  S
C3732      C3733   1.398       .  A
C3733      C3734   1.392       .  A
C3733      H3738   1.083       .  S
C3734      C3735   1.405       .  A
C3734      H3739   1.083       .  S
C3735      C3736   1.400       .  A
C3736      H3740   1.083       .  S
C3741      C3742   1.408       .  A
C3741      C3746   1.406       .  A
C3741      H3747   1.083       .  S
C3742      C3743   1.405       .  A
C3743      C3744   1.403       .  A
C3743      H3748   1.082       .  S
C3744      C3745   1.407       .  A
C3744      H3749   1.083       .  S
C3745      C3746   1.406       .  A
C3746      H3750   1.082       .  S
C3751      C3752   1.400       .  A
C3751      C3756   1.395       .  A
C3752      C3753   1.405       .  A
C3753      C3754   1.392       .  A
C3753      H3758   1.083       .  S
C3754      C3755   1.399       .  A
C3754      H3759   1.083       .  S
C3755      C3756   1.405       .  A
C3756      H3760   1.083       .  S
C3761      C3762   1.406       .  A
C3761      C5126   1.399       .  A
C3762      C3763   1.404       .  A
C3763      C3764   1.397       .  A
C3763      H3768   1.083       .  S
C3764      C5125   1.405       .  A
C3764      H3769   1.082       .  S
C3765      C5124   1.405       .  A
C3765      C3766   1.404       .  A
C3766      C5121   1.399       .  A
C3766      H3770   1.083   1_565  S
C3771      C3772   1.405       .  A
C3771      C3776   1.397       .  A
C3771      H3777   1.082       .  S
C3772      C3773   1.404       .  A
C3773      C3774   1.397       .  A
C3773      H3778   1.083       .  S
C3774      C3775   1.405       .  A
C3774      H3779   1.082       .  S
C3775      C3776   1.403       .  A
C3776      H3780   1.083       .  S
C3781      C3782   1.399       .  A
C3781      C3786   1.398       .  A
C3781      H3787   1.082       .  S
C3782      C3783   1.410       .  A
C3783      C3784   1.396       .  A
C3783      H3788   1.083       .  S
C3784      C3785   1.398       .  A
C3785      C3786   1.410       .  A
C3786      H3790   1.083       .  S
C3791      C3792   1.410       .  A
C3791      C3796   1.397       .  A
C3791      H3797   1.083       .  S
C3792      C3793   1.399       .  A
C3793      C5154   1.398       .  A
C3793      H5158   1.082       .  S
C3794      C5153   1.398       .  A
C3794      C3795   1.410       .  A
C3794      H3799   1.083   1_565  S
C3795      C5156   1.399       .  A
C3796      C5155   1.399       .  A
C3796      H3800   1.083       .  S
H3798      C5153   1.082       .  S
C3801      C3802   1.406       .  A
C3801      C3806   1.404       .  A
C3801      H3807   1.083       .  S
C3802      C4350   1.491   1_545  S
C3802      C3803   1.409       .  A
C3803      C3804   1.403   1_554  A
C3803      H5168   1.083   1_544  S
C3804      C3805   1.405       .  A
C3804      H3809   1.083       .  S
C3805      C3806   1.409   1_556  A
C3806      H3810   1.083       .  S
H3808      C5163   1.083   1_556  S
C3811      C3812   1.408   1_556  A
C3811      C3816   1.401       .  A
C3811      H3817   1.084       .  S
C3812      C3813   1.405       .  A
C3813      C3814   1.401       .  A
C3813      H3818   1.084       .  S
C3814      C3815   1.409   1_554  A
C3814      H3819   1.084       .  S
C3815      C3816   1.405       .  A
C3816      H3820   1.084       .  S
C3821      C3822   1.409   1_556  A
C3821      C3826   1.402       .  A
C3821      H3827   1.084       .  S
C3822      C3823   1.404       .  A
C3823      C3824   1.399       .  A
C3823      H3828   1.084       .  S
C3824      C3825   1.408   1_554  A
C3824      H3829   1.084       .  S
C3825      C3826   1.405       .  A
C3826      H3830   1.083       .  S
C3831      C3832   1.404       .  A
C3831      C3836   1.398       .  A
C3831      H3837   1.083       .  S
C3832      C3833   1.406       .  A
C3833      C3834   1.399       .  A
C3833      H3838   1.082       .  S
C3834      C3835   1.405       .  A
C3834      H3839   1.083       .  S
C3835      C3836   1.405       .  A
C3836      H3840   1.082       .  S
C3841      C3842   1.405       .  A
C3841      C3846   1.397       .  A
C3841      H3847   1.082       .  S
C3842      C3843   1.404       .  A
C3843      C3844   1.398       .  A
C3843      H3848   1.083       .  S
C3844      C3845   1.405       .  A
C3844      H3849   1.082       .  S
C3845      C3846   1.404       .  A
C3846      H3850   1.083       .  S
C3851      C3852   1.399       .  A
C3851      C3856   1.398       .  A
C3851      H3857   1.082       .  S
C3852      C3853   1.411       .  A
C3853      C3854   1.398       .  A
C3853      H3858   1.083       .  S
C3854      C3855   1.399       .  A
C3854      H3859   1.083       .  S
C3855      C3856   1.411       .  A
C3856      H3860   1.083       .  S
C3861      C3862   1.399       .  A
C3861      C3866   1.400       .  A
C3861      H3867   1.082       .  S
C3862      C3863   1.411       .  A
C3863      C3864   1.399       .  A
C3863      H3868   1.083       .  S
C3864      C3865   1.399       .  A
C3864      H3869   1.083       .  S
C3865      C3866   1.411       .  A
C3866      H3870   1.083       .  S
C3871      C3872   1.406       .  A
C3871      C3876   1.405       .  A
C3871      H3877   1.083       .  S
C3873      C3874   1.404   1_554  A
C3873      H3878   1.083   1_554  S
C3874      H3879   1.083       .  S
C3875      C3876   1.410   1_556  A
C3876      H3880   1.083       .  S
C3881      C3882   1.407       .  A
C3881      C3886   1.398       .  A
C3881      H3887   1.083       .  S
C3882      C3883   1.400       .  A
C3883      C3884   1.392       .  A
C3883      H3888   1.083       .  S
C3884      C3885   1.406       .  A
C3884      H3889   1.083       .  S
C3885      C3886   1.402       .  A
C3886      H3890   1.083       .  S
C3891      C3892   1.409       .  A
C3891      C3896   1.400       .  A
C3891      H3897   1.083       .  S
C3892      C3893   1.405       .  A
C3893      C3894   1.408       .  A
C3893      H3898   1.082       .  S
C3894      C3895   1.411       .  A
C3894      H3899   1.083       .  S
C3895      C3896   1.402       .  A
C3896      H3900   1.082       .  S
C3901      C3902   1.397       .  A
C3901      C3906   1.390       .  A
C3901      H3907   1.083       .  S
C3902      C3903   1.407       .  A
C3903      C3904   1.398       .  A
C3903      H3908   1.083       .  S
C3904      C3905   1.400       .  A
C3904      H3909   1.083       .  S
C3905      C3906   1.405       .  A
C3906      H3910   1.083       .  S
C3911      C3912   1.406       .  A
C3911      C3916   1.403       .  A
C3911      H3917   1.083       .  S
C3912      C3913   1.404       .  A
C3913      C3914   1.401       .  A
C3913      H3918   1.083       .  S
C3914      C3915   1.406       .  A
C3914      H3919   1.083       .  S
C3915      C3916   1.405       .  A
C3916      H3920   1.082       .  S
C3921      C3922   1.405       .  A
C3921      C3926   1.404       .  A
C3921      H3927   1.083       .  S
C3922      C3923   1.407       .  A
C3923      C3924   1.404       .  A
C3923      H3928   1.083       .  S
C3924      C3925   1.405       .  A
C3924      H3929   1.083       .  S
C3925      C3926   1.407       .  A
C3926      H3930   1.082       .  S
C3931      C3932   1.404       .  A
C3931      C3936   1.401       .  A
C3931      H3937   1.083       .  S
C3932      C3933   1.404       .  A
C3933      C3934   1.398       .  A
C3933      H3938   1.082       .  S
C3934      C3935   1.404       .  A
C3934      H3939   1.083       .  S
C3935      C3936   1.405       .  A
C3936      H3940   1.083       .  S
C3941      C3942   1.397       .  A
C3941      C3946   1.392       .  A
C3941      H3947   1.082       .  S
C3942      C3943   1.408       .  A
C3943      C3944   1.396       .  A
C3943      H3948   1.083       .  S
C3944      C3945   1.398       .  A
C3944      H3949   1.083       .  S
C3945      C3946   1.406       .  A
C3946      H3950   1.083       .  S
C3951      C3952   1.409       .  A
C3951      C3956   1.396       .  A
C3951      H3957   1.084       .  S
C3952      C3953   1.397       .  A
C3953      C3954   1.398       .  A
C3953      H3958   1.082       .  S
C3954      C3955   1.410       .  A
C3954      H3959   1.083       .  S
C3955      C3956   1.398       .  A
C3956      H3960   1.083       .  S
C3961      C3962   1.401       .  A
C3961      C3966   1.393       .  A
C3961      H3967   1.083       .  S
C3962      C3963   1.403       .  A
C3963      C3964   1.393       .  A
C3963      H3968   1.084       .  S
C3964      C3965   1.400       .  A
C3964      H3969   1.083       .  S
C3965      C3966   1.402       .  A
C3966      H3970   1.084       .  S
C3971      C3972   1.406       .  A
C3971      C3976   1.394       .  A
C3971      H3977   1.083       .  S
C3972      C3973   1.405       .  A
C3973      C3974   1.405       .  A
C3973      H3978   1.083       .  S
C3974      C3975   1.406       .  A
C3974      H3979   1.083       .  S
C3975      C3976   1.399       .  A
C3976      H3980   1.084       .  S
C3981      C3982   1.395       .  A
C3981      C3986   1.396       .  A
C3981      H3987   1.083       .  S
C3982      C3983   1.417       .  A
C3983      C3984   1.410       .  A
C3983      H3988   1.075       .  S
C3984      C3985   1.399       .  A
C3984      H3989   1.082       .  S
C3985      C3986   1.416       .  A
C3986      H3990   1.082       .  S
C3991      C3992   1.399       .  A
C3991      C3996   1.410       .  A
C3991      H3997   1.083       .  S
C3993      H3998   1.083       .  S
C3994      C3995   1.395       .  A
C3994      H3999   1.084       .  S
C3995      C3996   1.417       .  A
C3996      H4000   1.080       .  S
C4001      C4002   1.405       .  A
C4001      C4006   1.403       .  A
C4001      H4007   1.083       .  S
C4002      C4003   1.407       .  A
C4003      C4004   1.407       .  A
C4003      H4008   1.083       .  S
C4004      C4005   1.406       .  A
C4005      C4006   1.407       .  A
C4006      H4010   1.083       .  S
C4011      C4012   1.396       .  A
C4011      C4016   1.386       .  A
C4011      H4017   1.083       .  S
C4012      C4013   1.406       .  A
C4013      C4014   1.395       .  A
C4013      H4018   1.083       .  S
C4014      C4015   1.398       .  A
C4014      H4019   1.083       .  S
C4015      C4016   1.405       .  A
C4016      H4020   1.083       .  S
C4021      C4022   1.407       .  A
C4021      C4026   1.405       .  A
C4021      H4027   1.083       .  S
C4022      C4023   1.407       .  A
C4023      C4024   1.401       .  A
C4023      H4028   1.083       .  S
C4024      C4025   1.406       .  A
C4024      H4029   1.083       .  S
C4025      C4026   1.408       .  A
C4026      H4030   1.083       .  S
C4031      C4032   1.408       .  A
C4031      C4036   1.397       .  A
C4031      H4037   1.083       .  S
C4032      C4033   1.402       .  A
C4033      C4034   1.400       .  A
C4033      H4038   1.083       .  S
C4034      C4035   1.407       .  A
C4035      C4036   1.400       .  A
C4036      H4040   1.083       .  S
C4041      C4042   1.405       .  A
C4041      C4046   1.400       .  A
C4041      H4047   1.083       .  S
C4042      C4043   1.401       .  A
C4043      C4044   1.398       .  A
C4043      H4048   1.083       .  S
C4044      C4045   1.406       .  A
C4044      H4049   1.083       .  S
C4045      C4046   1.404       .  A
C4046      H4050   1.083       .  S
C4051      C4052   1.403       .  A
C4051      C4056   1.398       .  A
C4051      H4057   1.083       .  S
C4052      C4053   1.407       .  A
C4053      C4054   1.405       .  A
C4053      H4058   1.083       .  S
C4054      C4055   1.405       .  A
C4054      H4059   1.083       .  S
C4055      C4056   1.405       .  A
C4056      H4060   1.083       .  S
C4061      C4062   1.406       .  A
C4061      C4066   1.398       .  A
C4061      H4067   1.083       .  S
C4062      C4063   1.405       .  A
C4063      C4064   1.404       .  A
C4063      H4068   1.082       .  S
C4064      C4065   1.406       .  A
C4064      H4069   1.083       .  S
C4065      C4066   1.403       .  A
C4066      H4070   1.083       .  S
C4071      C4072   1.408       .  A
C4071      C5436   1.408   1_545  A
C4071      H4077   1.083       .  S
C4072      C4073   1.404       .  A
C4073      C4074   1.397       .  A
C4073      H4078   1.084       .  S
C4074      C5435   1.406   1_545  A
C4074      H4079   1.083       .  S
C4075      C5434   1.406       .  A
C4075      C4076   1.406       .  A
C4076      C5431   1.408       .  A
C4076      H4080   1.083       .  S
N4081      N4082   1.321       .  A
N4081      N4087   1.315       .  A
N4081     Mn4110   2.189       .  S
N4082      C4089   1.352       .  A
N4083      N4085   1.311       .  A
N4083     Mn4099   2.181       .  S
N4084      C4090   1.351       .  A
N4085      N4086   1.323       .  A
N4085     Mn4110   2.207       .  S
N4087      N4088   1.325       .  A
N4087     Mn4099   2.217       .  S
N4088      C4089   1.355       .  A
C4089      C5382   1.488       .  S
C4090      C5405   1.479       .  S
N4091      N4097   1.320       .  A
N4091     Mn4121   2.196       .  S
N4092      C4100   1.350   1_545  A
N4093      N4094   1.308       .  A
N4093      N4095   1.315       .  A
N4093     Mn4099   2.144       .  S
N4094      C4101   1.336       .  A
N4095      N4096   1.333       .  A
N4095     Mn4121   2.248       .  S
N4096      C4101   1.364       .  A
N4097     Mn4099   2.244       .  S
N4098      C4100   1.359       .  A
Mn4099    Cl4123   2.519       .  S
C4100      C5422   1.481       .  S
C4101      C5432   1.473       .  S
N4102      N4103   1.315       .  A
N4102      N4108   1.317       .  A
N4102     Mn4110   2.173       .  S
N4103      C4111   1.347       .  A
N4104      N4106   1.314       .  A
N4104      N4105   1.324       .  A
N4104     Mn4122   2.212       .  S
N4105      C4112   1.355       .  A
N4106      N4107   1.320       .  A
N4106     Mn4110   2.194       .  S
N4107      C4112   1.351       .  A
N4108      N4109   1.317       .  A
N4108     Mn4122   2.202       .  S
N4109      C4111   1.353       .  A
Mn4110    Cl4123   2.560       .  S
C4111      C5372   1.457       .  S
C4112      C5412   1.480       .  S
N4113      N4114   1.324       .  A
N4113      N4119   1.322       .  A
N4113     Mn4121   2.233       .  S
N4114      C4124   1.358       .  A
N4115      N4116   1.322       .  A
N4115      N4117   1.317       .  A
N4115     Mn4122   2.205       .  S
N4116      C4125   1.353       .  A
N4117      N4118   1.325       .  A
N4117     Mn4121   2.228       .  S
N4118      C4125   1.356       .  A
N4119      N4120   1.316       .  A
N4119     Mn4122   2.201       .  S
N4120      C4124   1.348       .  A
Mn4121    Cl4123   2.565       .  S
Mn4122    Cl4123   2.525       .  S
C4124      C5392   1.477       .  S
C4125      C5362   1.488       .  S
N4126      N4132   1.310       .  A
N4126     Mn4155   2.207       .  S
N4127      C4134   1.354   1_455  A
N4128      N4130   1.318       .  A
N4128      N4129   1.320       .  A
N4128     Mn4144   2.204       .  S
N4129      C4135   1.352       .  A
N4130      N4131   1.321       .  A
N4130     Mn4155   2.215       .  S
N4131      C4135   1.355       .  A
N4132     Mn4144   2.183       .  S
N4133      C4134   1.354   1_455  A
C4134      C5425   1.479       .  S
C4135      C5402   1.474       .  S
N4136      N4142   1.316       .  A
N4136      N4137   1.327       .  A
N4136     Mn4166   2.227       .  S
N4137      C4145   1.360       .  A
N4138      N4140   1.315       .  A
N4138     Mn4144   2.188       .  S
N4139      C4146   1.350       .  A
N4140     Mn4166   2.190       .  S
N4141      C4146   1.351       .  A
N4142      N4143   1.315       .  A
N4142     Mn4144   2.186       .  S
N4143      C4145   1.348       .  A
Mn4144    Cl4168   2.532       .  S
C4145      C5332   1.480       .  S
C4146      C5322   1.461       .  S
N4147      N4148   1.334       .  A
N4147      N4153   1.318       .  A
N4147     Mn4155   2.283       .  S
N4148      C4156   1.362       .  A
N4149      N4151   1.316       .  A
N4149      N4150   1.332       .  A
N4149     Mn4167   2.274       .  S
N4151      N4152   1.311       .  A
N4151     Mn4155   2.161       .  S
N4153      N4154   1.310       .  A
N4153     Mn4167   2.127       .  S
N4154      C4156   1.335       .  A
Mn4155    Cl4168   2.507       .  S
C4156      C5342   1.479       .  S
N4158      N4164   1.319       .  A
N4158     Mn4166   2.229       .  S
N4159      C4169   1.355   1_455  A
N4160      N4161   1.320       .  A
N4160      N4162   1.315       .  A
N4160     Mn4167   2.209       .  S
N4161      C4170   1.352       .  A
N4162      N4163   1.324       .  A
N4162     Mn4166   2.204       .  S
N4163      C4170   1.356       .  A
N4164     Mn4167   2.191       .  S
N4165      C4169   1.350   1_455  A
Mn4166    Cl4168   2.551       .  S
Mn4167    Cl4168   2.516       .  S
C4169      C5395   1.474       .  S
C4170      C5415   1.481       .  S
N4171      N4172   1.334       .  A
N4171     Mn4200   2.245       .  S
N4172      C4179   1.361       .  A
N4173      N4174   1.324   1_655  A
N4173     Mn4189   2.240       .  S
N4175      N4176   1.314       .  A
N4175     Mn4200   2.171       .  S
N4176      C4180   1.345       .  A
N4177      N4178   1.311   1_655  A
N4177     Mn4189   2.153       .  S
C4179      C5355   1.480       .  S
C4180      C5315   1.472       .  S
N4181      N4187   1.309       .  A
N4181      N4182   1.323       .  A
N4181     Mn4211   2.192       .  S
N4182      C4190   1.355       .  A
N4183      N4184   1.327       .  A
N4183      N4185   1.316       .  A
N4183     Mn4189   2.214       .  S
N4184      C4191   1.353       .  A
N4185      N4186   1.320       .  A
N4185     Mn4211   2.187       .  S
N4186      C4191   1.349       .  A
N4187      N4188   1.320       .  A
N4187     Mn4189   2.188       .  S
N4188      C4190   1.352       .  A
Mn4189    Cl4213   2.495       .  S
C4190      C5292   1.476       .  S
C4191      C5435   1.488       .  S
N4192      N4193   1.323       .  A
N4192     Mn4200   2.213       .  S
N4193      C4201   1.354       .  A
N4194      N4195   1.321       .  A
N4195      C4202   1.352       .  A
N4196     Mn4200   2.238       .  S
N4197      C4202   1.358       .  A
N4198     Mn4212   2.198       .  S
N4199      C4201   1.353       .  A
C4201      C5272   1.482       .  S
C4202      C5282   1.486       .  S
N4203      N4204   1.315       .  A
N4203      N4209   1.313       .  A
N4204      C4214   1.345       .  A
N4205      N4206   1.319       .  A
N4205      N4207   1.319       .  A
N4205     Mn4212   2.222       .  S
N4206      C4215   1.354       .  A
N4207      N4208   1.317       .  A
N4207     Mn4211   2.179       .  S
N4208      C4215   1.348       .  A
N4209      N4210   1.322       .  A
N4210      C4214   1.355       .  A
Mn4211    Cl4213   2.556       .  S
Mn4212    Cl4213   2.523       .  S
C4214      C5302   1.465       .  S
C4215      C5262   1.464       .  S
N4216      N4217   1.335       .  A
N4216      N4222   1.316       .  A
N4216     Mn4245   2.241       .  S
N4217      C4224   1.361       .  A
N4218      N4220   1.317       .  A
N4218      N4219   1.327       .  A
N4218     Mn4234   2.254       .  S
N4219      C4225   1.361       .  A
N4220      N4221   1.312       .  A
N4220     Mn4245   2.147       .  S
N4221      C4225   1.343       .  A
N4222      N4223   1.310       .  A
N4222     Mn4234   2.172       .  S
N4223      C4224   1.335       .  A
C4224      C5345   1.495       .  S
C4225      C5312   1.471       .  S
N4226      N4232   1.311       .  A
N4226      N4227   1.321       .  A
N4226     Mn4256   2.196       .  S
N4227      C4235   1.354       .  A
N4228      N4229   1.323       .  A
N4228      N4230   1.314       .  A
N4228     Mn4234   2.207       .  S
N4229      C4236   1.353       .  A
N4230      N4231   1.324       .  A
N4230     Mn4256   2.198       .  S
N4231      C4236   1.353       .  A
N4232      N4233   1.320       .  A
N4232     Mn4234   2.187       .  S
N4233      C4235   1.353       .  A
Mn4234    Cl4258   2.496       .  S
C4235      C5295   1.477       .  S
C4236      C5385   1.489       .  S
N4237      N4238   1.318       .  A
N4237      N4243   1.315       .  A
N4237     Mn4245   2.186       .  S
N4238      C4246   1.348       .  A
N4239      N4241   1.324       .  A
N4239      N4240   1.322       .  A
N4239     Mn4257   2.237       .  S
N4240      C4247   1.354       .  A
N4241      N4242   1.325       .  A
N4241     Mn4245   2.235       .  S
N4242      C4247   1.357       .  A
N4243      N4244   1.320       .  A
N4243     Mn4257   2.194       .  S
N4244      C4246   1.354       .  A
Mn4245    Cl4258   2.555       .  S
C4246      C5242   1.471       .  S
C4247      C5285   1.487       .  S
N4248      N4249   1.312       .  A
N4248      N4254   1.313       .  A
N4248     Mn4256   2.161       .  S
N4249      C4259   1.344       .  A
N4250      N4251   1.329       .  A
N4250      N4252   1.319       .  A
N4250     Mn4257   2.258       .  S
N4251      C4260   1.363       .  A
N4252      N4253   1.316       .  A
N4252     Mn4256   2.189       .  S
N4253      C4260   1.349       .  A
N4254      N4255   1.323       .  A
N4254     Mn4257   2.203       .  S
N4255      C4259   1.356       .  A
Mn4256    Cl4258   2.543       .  S
Mn4257    Cl4258   2.540       .  S
C4259      C5305   1.464       .  S
C4260      C5252   1.491       .  S
N4261      N4262   1.322       .  A
N4261      N4267   1.317       .  A
N4261     Mn4290   2.208       .  S
N4262      C4269   1.352       .  A
N4263      N4265   1.321       .  A
N4263      N4264   1.319       .  A
N4263     Mn4279   2.214       .  S
N4264      C4270   1.352       .  A
N4265      N4266   1.320       .  A
N4265     Mn4290   2.211       .  S
N4266      C4270   1.354       .  A
N4267      N4268   1.325       .  A
N4267     Mn4279   2.231       .  S
N4268      C4269   1.359       .  A
C4269      C5255   1.491       .  S
C4270      C5202   1.477       .  S
N4271      N4272   1.314       .  A
N4271     Mn4301   2.161       .  S
N4272      C4280   1.344       .  A
N4273      N4274   1.323   1_655  A
N4273     Mn4279   2.223       .  S
N4275      N4276   1.313       .  A
N4275     Mn4301   2.179       .  S
N4276      C4281   1.347       .  A
N4277      N4278   1.328   1_655  A
N4277     Mn4279   2.236       .  S
Mn4279    Cl4303   2.544       .  S
C4280      C5225   1.479       .  S
C4281      C5245   1.471       .  S
N4282      N4283   1.331       .  A
N4282      N4288   1.310       .  A
N4282     Mn4290   2.242       .  S
N4283      C4291   1.368       .  A
N4284      N4286   1.316       .  A
N4284      N4285   1.328       .  A
N4284     Mn4302   2.258       .  S
N4285      C4292   1.364       .  A
N4286      N4287   1.313       .  A
N4286     Mn4290   2.150       .  S
N4287      C4292   1.344       .  A
N4288      N4289   1.304       .  A
N4288     Mn4302   2.140       .  S
N4289      C4291   1.330       .  A
Mn4290    Cl4303   2.560       .  S
C4291      C5182   1.467       .  S
C4292      C5212   1.479       .  S
N4293      N4294   1.321       .  A
N4293     Mn4301   2.206       .  S
N4294      C4304   1.355       .  A
N4295      N4296   1.322   1_455  A
N4295     Mn4302   2.200   1_455  S
N4297      N4298   1.327       .  A
N4297     Mn4301   2.206       .  S
N4298      C4305   1.356       .  A
N4299      N4300   1.320       .  A
N4299     Mn4302   2.175   1_455  S
Mn4302    Cl4303   2.505       .  S
C4304      C5192   1.479       .  S
C4305      C5232   1.494       .  S
N4306      N4307   1.321       .  A
N4306      N4312   1.318       .  A
N4306     Mn4335   2.210       .  S
N4307      C4314   1.352       .  A
N4308      N4310   1.322       .  A
N4308      N4309   1.320       .  A
N4309      C4315   1.353       .  A
N4310      N4311   1.321       .  A
N4311      C4315   1.354       .  A
N4312      N4313   1.325       .  A
N4312     Mn4324   2.221   1_565  S
N4313      C4314   1.356       .  A
C4314      C5275   1.483       .  S
C4315      C5195   1.480       .  S
N4316      N4322   1.314       .  A
N4316      N4317   1.313       .  A
N4317      C4325   1.344       .  A
N4318      N4319   1.323       .  A
N4318      N4320   1.318       .  A
N4318     Mn4324   2.222   1_565  S
N4319      C4326   1.357       .  A
N4320      N4321   1.312       .  A
N4320     Mn4346   2.171       .  S
N4321      C4326   1.346       .  A
N4322      N4323   1.327       .  A
N4323      C4325   1.362       .  A
Mn4324    Cl4348   2.530   1_545  S
C4325      C5215   1.479       .  S
C4326      C5265   1.465       .  S
N4327      N4328   1.332       .  A
N4327      N4333   1.310       .  A
N4327     Mn4335   2.244       .  S
N4328      C4336   1.368       .  A
N4329      N4331   1.315       .  A
N4329      N4330   1.329       .  A
N4329     Mn4347   2.263       .  S
N4330      C4337   1.364       .  A
N4331      N4332   1.313       .  A
N4331     Mn4335   2.148       .  S
N4332      C4337   1.344       .  A
N4333      N4334   1.304       .  A
N4333     Mn4347   2.144       .  S
N4334      C4336   1.329       .  A
Mn4335    Cl4348   2.556       .  S
C4336      C5172   1.469       .  S
C4337      C5222   1.480       .  S
N4338      N4339   1.320       .  A
N4338      N4344   1.310       .  A
N4338     Mn4346   2.200       .  S
N4339      C4349   1.354       .  A
N4340      N4341   1.322       .  A
N4340      N4342   1.311       .  A
N4340     Mn4347   2.198       .  S
N4341      C4350   1.350       .  A
N4342      N4343   1.325       .  A
N4342     Mn4346   2.197       .  S
N4343      C4350   1.355       .  A
N4344      N4345   1.319       .  A
N4344     Mn4347   2.174       .  S
N4345      C4349   1.353       .  A
Mn4346    Cl4348   2.539       .  S
Mn4347    Cl4348   2.509       .  S
C4349      C5205   1.476       .  S
N4351      N4352   1.326       .  A
N4351      N4357   1.312       .  A
N4351     Mn4380   2.205       .  S
N4352      C4359   1.356       .  A
N4353      N4355   1.310       .  A
N4353      N4354   1.320       .  A
N4353     Mn4369   2.175       .  S
N4354      C4360   1.353       .  A
N4355     Mn4380   2.203       .  S
N4357      N4358   1.322       .  A
N4357     Mn4369   2.200       .  S
N4358      C4359   1.350       .  A
C4359      C5235   1.494       .  S
N4361      N4367   1.317       .  A
N4361      N4362   1.313       .  A
N4361     Mn4391   2.152       .  S
N4362      C4370   1.345       .  A
N4363      N4364   1.304       .  A
N4363      N4365   1.310       .  A
N4363     Mn4369   2.140       .  S
N4364      C4371   1.329       .  A
N4365      N4366   1.332       .  A
N4365     Mn4391   2.246       .  S
N4366      C4371   1.368       .  A
N4367      N4368   1.327       .  A
N4367     Mn4369   2.256       .  S
N4368      C4370   1.362       .  A
Mn4369    Cl4393   2.497       .  S
C4370      C5152   1.477       .  S
C4371      C5175   1.468       .  S
N4372      N4378   1.318       .  A
N4372     Mn4380   2.179       .  S
N4374      N4376   1.313       .  A
N4374      N4375   1.325       .  A
N4374     Mn4392   2.225       .  S
N4375      C4382   1.360       .  A
N4376      N4377   1.313       .  A
N4376     Mn4380   2.158       .  S
N4377      C4382   1.344       .  A
N4378      N4379   1.321       .  A
N4378     Mn4392   2.215       .  S
N4379      C4381   1.355       .  A
Mn4380    Cl4393   2.540       .  S
N4383      N4384   1.320       .  A
N4383      N4389   1.321       .  A
N4383     Mn4391   2.209       .  S
N4384      C4394   1.354       .  A
N4385      N4386   1.323       .  A
N4385      N4387   1.317       .  A
N4385     Mn4392   2.216       .  S
N4386      C4395   1.355       .  A
N4387      N4388   1.324       .  A
N4387     Mn4391   2.222       .  S
N4388      C4395   1.355       .  A
N4389      N4390   1.319       .  A
N4389     Mn4392   2.213       .  S
N4390      C4394   1.352       .  A
Mn4391    Cl4393   2.567       .  S
Mn4392    Cl4393   2.529       .  S
C4394      C5132   1.476       .  S
C4395      C5102   1.488       .  S
N4396      N4397   1.325       .  A
N4396      N4402   1.312       .  A
N4396     Mn4425   2.200       .  S
N4397      C4404   1.355       .  A
N4398      N4400   1.310       .  A
N4398      N4399   1.319       .  A
N4398     Mn4414   2.173       .  S
N4399      C4405   1.352       .  A
N4400      N4401   1.320       .  A
N4400     Mn4425   2.202       .  S
N4401      C4405   1.355       .  A
N4402      N4403   1.322       .  A
N4402     Mn4414   2.198       .  S
N4403      C4404   1.350       .  A
C4404      C5165   1.491       .  S
C4405      C5135   1.476       .  S
N4406      N4412   1.316       .  A
N4406      N4407   1.312       .  A
N4406     Mn4436   2.149       .  S
N4407      C4415   1.344       .  A
N4408      N4409   1.304       .  A
N4408      N4410   1.311       .  A
N4408     Mn4414   2.142       .  S
N4409      C4416   1.329       .  A
N4410      N4411   1.332       .  A
N4410     Mn4436   2.246       .  S
N4411      C4416   1.368       .  A
N4412      N4413   1.327       .  A
N4412     Mn4414   2.256       .  S
N4413      C4415   1.362       .  A
Mn4414    Cl4438   2.494       .  S
C4415      C5142   1.477       .  S
C4416      C5185   1.469       .  S
N4417      N4418   1.314       .  A
N4417      N4423   1.318       .  A
N4417     Mn4425   2.175       .  S
N4418      C4426   1.347       .  A
N4419      N4421   1.314       .  A
N4419      N4420   1.326       .  A
N4419     Mn4437   2.226       .  S
N4420      C4427   1.360       .  A
N4421      N4422   1.313       .  A
N4421     Mn4425   2.159       .  S
N4422      C4427   1.344       .  A
N4423      N4424   1.321       .  A
N4423     Mn4437   2.216       .  S
N4424      C4426   1.355       .  A
Mn4425    Cl4438   2.540       .  S
C4426      C5095   1.463       .  S
C4427      C5155   1.476       .  S
N4428      N4429   1.321       .  A
N4428      N4434   1.321       .  A
N4428     Mn4436   2.212       .  S
N4429      C4439   1.354       .  A
N4430      N4431   1.323       .  A
N4430      N4432   1.317       .  A
N4430     Mn4437   2.216       .  S
N4431      C4440   1.355       .  A
N4432      N4433   1.324       .  A
N4432     Mn4436   2.220       .  S
N4433      C4440   1.355       .  A
N4434      N4435   1.319       .  A
N4434     Mn4437   2.215       .  S
N4435      C4439   1.352       .  A
Mn4436    Cl4438   2.566       .  S
Mn4437    Cl4438   2.530       .  S
C4439      C5125   1.477       .  S
C4440      C5082   1.488       .  S
N4441      N4442   1.309       .  A
N4441      N4447   1.317       .  A
N4441     Mn4470   2.158       .  S
N4442      C4449   1.343       .  A
N4443      N4445   1.314       .  A
N4443      N4444   1.328       .  A
N4443     Mn4459   2.236       .  S
N4444      C4450   1.362       .  A
N4445      N4446   1.314       .  A
N4445     Mn4470   2.164       .  S
N4446      C4450   1.344       .  A
N4447      N4448   1.323       .  A
N4447     Mn4459   2.215       .  S
N4448      C4449   1.357       .  A
C4449      C5375   1.458       .  S
C4450      C5062   1.481       .  S
N4451      N4457   1.321       .  A
N4451     Mn4481   2.210       .  S
N4452      C4460   1.353       .  A
N4453      N4454   1.326       .  A
N4453      N4455   1.317       .  A
N4453     Mn4459   2.225       .  S
N4455     Mn4481   2.218       .  S
N4456      C4461   1.354       .  A
N4457      N4458   1.319       .  A
N4457     Mn4459   2.213       .  S
Mn4459    Cl4483   2.540       .  S
C4460      C5032   1.475       .  S
C4461      C5365   1.490       .  S
N4462      N4463   1.324       .  A
N4462      N4468   1.312       .  A
N4462     Mn4470   2.191       .  S
N4463      C4471   1.355       .  A
N4464      N4466   1.310       .  A
N4464      N4465   1.319       .  A
N4464     Mn4482   2.169       .  S
N4466      N4467   1.320       .  A
N4466     Mn4470   2.201       .  S
N4468      N4469   1.320       .  A
N4468     Mn4482   2.195       .  S
N4469      C4471   1.349       .  A
Mn4470    Cl4483   2.533       .  S
C4471      C5072   1.485       .  S
C4472      C5045   1.475   1_545  S
N4473      N4479   1.315       .  A
N4473     Mn4481   2.149       .  S
N4475      N4476   1.304       .  A
N4475      N4477   1.310       .  A
N4475     Mn4482   2.141       .  S
N4476      C4485   1.329       .  A
N4477     Mn4481   2.251       .  S
N4479      N4480   1.327       .  A
N4479     Mn4482   2.256       .  S
Mn4481    Cl4483   2.561       .  S
Mn4482    Cl4483   2.500       .  S
C4484      C5052   1.479   1_545  S
C4485      C5022   1.470       .  S
N4486      N4487   1.315       .  A
N4486      N4492   1.317       .  A
N4486     Mn4515   2.185       .  S
N4487      C4494   1.350       .  A
N4488      N4490   1.313       .  A
N4488      N4489   1.326       .  A
N4488     Mn4504   2.223       .  S
N4489      C4495   1.361       .  A
N4490      N4491   1.314       .  A
N4490     Mn4515   2.166       .  S
N4491      C4495   1.345       .  A
N4492      N4493   1.320       .  A
N4492     Mn4504   2.202       .  S
N4493      C4494   1.353       .  A
C4494      C5325   1.460       .  S
C4495      C5055   1.478       .  S
N4496      N4502   1.321       .  A
N4496      N4497   1.322       .  A
N4496     Mn4526   2.220       .  S
N4497      C4505   1.355       .  A
N4498      N4499   1.321       .  A
N4498      N4500   1.316       .  A
N4498     Mn4504   2.206       .  S
N4499      C4506   1.353       .  A
N4500      N4501   1.322       .  A
N4500     Mn4526   2.209       .  S
N4501      C4506   1.352       .  A
N4502      N4503   1.318       .  A
N4502     Mn4504   2.201       .  S
N4503      C4505   1.350       .  A
Mn4504    Cl4528   2.530       .  S
C4505      C5042   1.475       .  S
C4506      C5335   1.474       .  S
N4507      N4508   1.327       .  A
N4507      N4513   1.313       .  A
N4507     Mn4515   2.205       .  S
N4508      C4516   1.356       .  A
N4509      N4511   1.310       .  A
N4509      N4510   1.318       .  A
N4509     Mn4527   2.166       .  S
N4510      C4517   1.352       .  A
N4511      N4512   1.320       .  A
N4511     Mn4515   2.199       .  S
N4512      C4517   1.354       .  A
N4513      N4514   1.320       .  A
N4513     Mn4527   2.197       .  S
N4514      C4516   1.348       .  A
Mn4515    Cl4528   2.539       .  S
C4516      C5012   1.491       .  S
C4517      C5035   1.474       .  S
N4518      N4519   1.313       .  A
N4518      N4524   1.315       .  A
N4518     Mn4526   2.152       .  S
N4519      C4529   1.344       .  A
N4520      N4521   1.304       .  A
N4520      N4522   1.311       .  A
N4520     Mn4527   2.143       .  S
N4521      C4530   1.331       .  A
N4522      N4523   1.331       .  A
N4522     Mn4526   2.240       .  S
N4523      C4530   1.368       .  A
N4524      N4525   1.328       .  A
N4524     Mn4527   2.256       .  S
N4525      C4529   1.364       .  A
Mn4526    Cl4528   2.554       .  S
Mn4527    Cl4528   2.508       .  S
C4529      C5065   1.481       .  S
C4530      C5002   1.466       .  S
N4531      N4537   1.311   1_455  A
N4532      C4539   1.368       .  A
N4533      N4535   1.316   1_655  A
N4533      N4534   1.327       .  A
N4533     Mn4549   2.255       .  S
N4534      C4540   1.362   1_655  A
N4537      N4538   1.304       .  A
N4541      N4547   1.310       .  A
N4541      N4542   1.321       .  A
N4542      C4550   1.356       .  A
N4543      N4544   1.322       .  A
N4543      N4545   1.311       .  A
N4544      C4551   1.350       .  A
N4545      N4546   1.325       .  A
N4545     Mn4571   2.199       .  S
N4546      C4551   1.356       .  A
N4547      N4548   1.319       .  A
N4547     Mn4549   2.174       .  S
N4548      C4550   1.353       .  A
C4550      C4972   1.478       .  S
C4551      C5015   1.490       .  S
N4552      N4553   1.323       .  A
N4552     Mn4560   2.220       .  S
N4553      C4561   1.354       .  A
N4554      N4555   1.319       .  A
N4554     Mn4572   2.215       .  S
N4556      N4557   1.322       .  A
N4556     Mn4560   2.216       .  S
N4557      C4562   1.355       .  A
N4558      N4559   1.324       .  A
N4558     Mn4572   2.215       .  S
C4561      C4952   1.486       .  S
C4562      C4962   1.478       .  S
N4563      N4564   1.314       .  A
N4563      N4569   1.314       .  A
N4563     Mn4571   2.162       .  S
N4564      C4574   1.344       .  A
N4565      N4566   1.321       .  A
N4565      N4567   1.318       .  A
N4565     Mn4572   2.217       .  S
N4566      C4575   1.355       .  A
N4567      N4568   1.315       .  A
N4567     Mn4571   2.181       .  S
N4568      C4575   1.348       .  A
N4569      N4570   1.325       .  A
N4569     Mn4572   2.221       .  S
N4570      C4574   1.359       .  A
Mn4571    Cl4573   2.545       .  S
Mn4572    Cl4573   2.523       .  S
C4574      C4992   1.473       .  S
C4575      C4942   1.465       .  S
N4576      N4577   1.331       .  A
N4576      N4582   1.311       .  A
N4576     Mn4605   2.242       .  S
N4577      C4584   1.366       .  A
N4578      N4580   1.316       .  A
N4578      N4579   1.326       .  A
N4578     Mn4594   2.248       .  S
N4579      C4585   1.361       .  A
N4580      N4581   1.313       .  A
N4580     Mn4605   2.150       .  S
N4581      C4585   1.345       .  A
N4582      N4583   1.304       .  A
N4582     Mn4594   2.146       .  S
N4583      C4584   1.330       .  A
C4584      C5005   1.469       .  S
C4585      C4995   1.474       .  S
N4586      N4592   1.310       .  A
N4586      N4587   1.320       .  A
N4586     Mn4616   2.203       .  S
N4587      C4595   1.355       .  A
N4588      N4589   1.321       .  A
N4588      N4590   1.311       .  A
N4588     Mn4594   2.190       .  S
N4589      C4596   1.349       .  A
N4590      N4591   1.324       .  A
N4590     Mn4616   2.194       .  S
N4591      C4596   1.355       .  A
N4592      N4593   1.319       .  A
N4592     Mn4594   2.174       .  S
N4593      C4595   1.353       .  A
Mn4594    Cl4618   2.504       .  S
C4595      C4965   1.478       .  S
C4596      C5075   1.485       .  S
N4597      N4598   1.322       .  A
N4597      N4603   1.317       .  A
N4597     Mn4605   2.215       .  S
N4598      C4606   1.353       .  A
N4599      N4601   1.321       .  A
N4599      N4600   1.319       .  A
N4599     Mn4617   2.216       .  S
N4600      C4607   1.352       .  A
N4601      N4602   1.321       .  A
N4601     Mn4605   2.215       .  S
N4602      C4607   1.355       .  A
N4603      N4604   1.324       .  A
N4603     Mn4617   2.215       .  S
N4604      C4606   1.355       .  A
Mn4605    Cl4618   2.559       .  S
C4606      C4932   1.484       .  S
C4607      C4975   1.479       .  S
N4608      N4609   1.314       .  A
N4608      N4614   1.314       .  A
N4608     Mn4616   2.162       .  S
N4609      C4619   1.344       .  A
N4610      N4611   1.321       .  A
N4610      N4612   1.318       .  A
N4610     Mn4617   2.216       .  S
N4611      C4620   1.355       .  A
N4612      N4613   1.314       .  A
N4612     Mn4616   2.176       .  S
N4613      C4620   1.347       .  A
N4614      N4615   1.325       .  A
N4614     Mn4617   2.223       .  S
N4615      C4619   1.360       .  A
Mn4616    Cl4618   2.543       .  S
Mn4617    Cl4618   2.524       .  S
C4619      C4985   1.475       .  S
C4620      C4922   1.463       .  S
N4621      N4622   1.323       .  A
N4621      N4627   1.317       .  A
N4621     Mn4650   2.219       .  S
N4622      C4629   1.354       .  A
N4623      N4625   1.323       .  A
N4623      N4624   1.317       .  A
N4623     Mn4639   2.206       .  S
N4624      C4630   1.349       .  A
N4625      N4626   1.322       .  A
N4625     Mn4650   2.223       .  S
N4626      C4630   1.356       .  A
N4627      N4628   1.323       .  A
N4627     Mn4639   2.207       .  S
N4628      C4629   1.354       .  A
C4629      C4935   1.484       .  S
C4630      C4882   1.474       .  S
N4631      N4632   1.314       .  A
N4631     Mn4661   2.161       .  S
N4632      C4640   1.345       .  A
N4633      N4634   1.320       .  A
N4633     Mn4639   2.214       .  S
N4635      N4636   1.316       .  A
N4635     Mn4661   2.184       .  S
N4636      C4641   1.349       .  A
N4637      N4638   1.325       .  A
N4637     Mn4639   2.215       .  S
Mn4639    Cl4663   2.523       .  S
C4640      C4902   1.475       .  S
C4641      C4925   1.463       .  S
N4642      N4643   1.336       .  A
N4642      N4648   1.312       .  A
N4642     Mn4650   2.260       .  S
N4643      C4651   1.369       .  A
N4644      N4646   1.318       .  A
N4644      N4645   1.324       .  A
N4644     Mn4662   2.239       .  S
N4645      C4652   1.360       .  A
N4646      N4647   1.313       .  A
N4646     Mn4650   2.168       .  S
N4647      C4652   1.346       .  A
N4648      N4649   1.307       .  A
N4648     Mn4662   2.132       .  S
N4649      C4651   1.332       .  A
Mn4650    Cl4663   2.560       .  S
C4651      C4862   1.479       .  S
C4652      C4892   1.474       .  S
N4653      N4654   1.322       .  A
N4653     Mn4661   2.193       .  S
N4654      C4664   1.355       .  A
N4655      N4656   1.324       .  A
N4655     Mn4662   2.203       .  S
N4657      N4658   1.323       .  A
N4657     Mn4661   2.195       .  S
N4658      C4665   1.351       .  A
N4659      N4660   1.317       .  A
N4659     Mn4662   2.164       .  S
Mn4662    Cl4663   2.510       .  S
C4664      C4872   1.474       .  S
C4665      C4912   1.488       .  S
N4666      N4667   1.316       .  A
N4666      N4672   1.319       .  A
N4666     Mn4695   2.181       .  S
N4667      C4674   1.348       .  A
N4668      N4670   1.313       .  A
N4668      N4669   1.326       .  A
N4668     Mn4684   2.225       .  S
N4669      C4675   1.360       .  A
N4670      N4671   1.314       .  A
N4670     Mn4695   2.159       .  S
N4671      C4675   1.344       .  A
N4672      N4673   1.320       .  A
N4672     Mn4684   2.215       .  S
N4673      C4674   1.354       .  A
C4674      C5092   1.462       .  S
N4676      N4682   1.321       .  A
N4676     Mn4706   2.214       .  S
N4677      C4685   1.354       .  A
N4678      N4679   1.325       .  A
N4678      N4680   1.317       .  A
N4678     Mn4684   2.217       .  S
N4680     Mn4706   2.215       .  S
N4681      C4686   1.353       .  A
N4682      N4683   1.319       .  A
N4682     Mn4684   2.213       .  S
Mn4684    Cl4708   2.540       .  S
C4686      C5085   1.488       .  S
N4687      N4688   1.324       .  A
N4687      N4693   1.317       .  A
N4687     Mn4695   2.201       .  S
N4688      C4696   1.352       .  A
N4689      N4691   1.309       .  A
N4689      N4690   1.319       .  A
N4689     Mn4707   2.178       .  S
N4690      C4697   1.353       .  A
N4691      N4692   1.321       .  A
N4691     Mn4695   2.193       .  S
N4692      C4697   1.354       .  A
N4693      N4694   1.326       .  A
N4693     Mn4707   2.211       .  S
N4694      C4696   1.351       .  A
Mn4695    Cl4708   2.539       .  S
C4696      C4812   1.493       .  S
C4697      C4832   1.477       .  S
N4698      N4704   1.318       .  A
N4698     Mn4706   2.170       .  S
N4699      C4709   1.345       .  A
N4700      N4701   1.306       .  A
N4700      N4702   1.312       .  A
N4700     Mn4707   2.132       .  S
N4701      C4710   1.333       .  A
N4702     Mn4706   2.249       .  S
N4704      N4705   1.326       .  A
N4704     Mn4707   2.246       .  S
Mn4706    Cl4708   2.558       .  S
Mn4707    Cl4708   2.516       .  S
C4709      C4852   1.478       .  S
C4710      C4915   1.473       .  S
N4711      N4712   1.323       .  A
N4711      N4717   1.317       .  A
N4711     Mn4740   2.218       .  S
N4712      C4719   1.354       .  A
N4713      N4715   1.322       .  A
N4713      N4714   1.317       .  A
N4713     Mn4729   2.204       .  S
N4714      C4720   1.349       .  A
N4715      N4716   1.321       .  A
N4715     Mn4740   2.220       .  S
N4716      C4720   1.356       .  A
N4717      N4718   1.323       .  A
N4717     Mn4729   2.207       .  S
N4718      C4719   1.354       .  A
C4719      C4955   1.485       .  S
C4720      C4875   1.474       .  S
N4721      N4727   1.312       .  A
N4721      N4722   1.314       .  A
N4721     Mn4751   2.161       .  S
N4722      C4730   1.345       .  A
N4723      N4724   1.320       .  A
N4723      N4725   1.319       .  A
N4723     Mn4729   2.214       .  S
N4724      C4731   1.354       .  A
N4725      N4726   1.317       .  A
N4725     Mn4751   2.188       .  S
N4726      C4731   1.350       .  A
N4727      N4728   1.325       .  A
N4727     Mn4729   2.215       .  S
N4728      C4730   1.359       .  A
Mn4729    Cl4753   2.529       .  S
C4730      C4895   1.475       .  S
C4731      C4945   1.465       .  S
N4732      N4733   1.336       .  A
N4732      N4738   1.312       .  A
N4732     Mn4740   2.260       .  S
N4733      C4741   1.369       .  A
N4734      N4736   1.318       .  A
N4734      N4735   1.324       .  A
N4735      C4742   1.360       .  A
N4736      N4737   1.314       .  A
N4737      C4742   1.346       .  A
N4738      N4739   1.307       .  A
N4738     Mn4752   2.133   1_565  S
N4739      C4741   1.332       .  A
Mn4740    Cl4753   2.566       .  S
C4741      C4815   1.479   1_565  S
C4742      C4905   1.475       .  S
N4743      N4744   1.322       .  A
N4743      N4749   1.309       .  A
N4744      C4754   1.355       .  A
N4745      N4746   1.324       .  A
N4745      N4747   1.317       .  A
N4745     Mn4752   2.203   1_565  S
N4746      C4755   1.349       .  A
N4747      N4748   1.324       .  A
N4747     Mn4751   2.200       .  S
N4748      C4755   1.352       .  A
N4749      N4750   1.317       .  A
N4750      C4754   1.350       .  A
Mn4751    Cl4753   2.545       .  S
Mn4752    Cl4753   2.505   1_545  S
C4754      C4885   1.474       .  S
C4755      C4802   1.489       .  S
N4756      N4757   1.316       .  A
N4756      N4762   1.319       .  A
N4756     Mn4785   2.183       .  S
N4757      C4764   1.348       .  A
N4758      N4760   1.313       .  A
N4758      N4759   1.326       .  A
N4758     Mn4774   2.225       .  S
N4759      C4765   1.360       .  A
N4760      N4761   1.314       .  A
N4760     Mn4785   2.160       .  S
N4761      C4765   1.344       .  A
N4762      N4763   1.320       .  A
N4762     Mn4774   2.217       .  S
N4763      C4764   1.355       .  A
C4764      C5115   1.463       .  S
C4765      C4855   1.477       .  S
N4766      N4772   1.322       .  A
N4766      N4767   1.320       .  A
N4766     Mn4796   2.215       .  S
N4767      C4775   1.354       .  A
N4768      N4769   1.325       .  A
N4768      N4770   1.317       .  A
N4768     Mn4774   2.219       .  S
N4769      C4776   1.356       .  A
N4770      N4771   1.322       .  A
N4770     Mn4796   2.218       .  S
N4771      C4776   1.353       .  A
N4772      N4773   1.319       .  A
N4772     Mn4774   2.215       .  S
N4773      C4775   1.352       .  A
Mn4774    Cl4798   2.533       .  S
C4775      C4835   1.477       .  S
C4776      C5105   1.489       .  S
N4777      N4778   1.323       .  A
N4777      N4783   1.316       .  A
N4777     Mn4785   2.199       .  S
N4778      C4786   1.352       .  A
N4779      N4781   1.309       .  A
N4779      N4780   1.319       .  A
N4779     Mn4797   2.176       .  S
N4780      C4787   1.352       .  A
N4781      N4782   1.321       .  A
N4781     Mn4785   2.192       .  S
N4782      C4787   1.354       .  A
N4783      N4784   1.326       .  A
N4783     Mn4797   2.212       .  S
N4784      C4786   1.351       .  A
Mn4785    Cl4798   2.546       .  S
C4786      C4865   1.494       .  S
C4787      C4825   1.477       .  S
N4788      N4789   1.314       .  A
N4788      N4794   1.318       .  A
N4788     Mn4796   2.171       .  S
N4789      C4799   1.346       .  A
N4790      N4791   1.306       .  A
N4790      N4792   1.311       .  A
N4790     Mn4797   2.131       .  S
N4791      C4800   1.333       .  A
N4792      N4793   1.334       .  A
N4792     Mn4796   2.250       .  S
N4793      C4800   1.368       .  A
N4794      N4795   1.326       .  A
N4794     Mn4797   2.244       .  S
N4795      C4799   1.361       .  A
Mn4796    Cl4798   2.555       .  S
Mn4797    Cl4798   2.520       .  S
C4799      C4845   1.477       .  S
C4800      C4805   1.473       .  S
C4801      C4802   1.407       .  A
C4801      C4806   1.407       .  A
C4801      H4807   1.083       .  S
C4802      C4803   1.405       .  A
C4803      C4804   1.400       .  A
C4803      H4808   1.083       .  S
C4804      C4805   1.407       .  A
C4804      H4809   1.084       .  S
C4805      C4806   1.407       .  A
C4806      H4810   1.083       .  S
C4811      C4812   1.405       .  A
C4811      H4817   1.083       .  S
C4812      C4813   1.408       .  A
C4813      C4814   1.410       .  A
C4813      H4818   1.083       .  S
C4814      H4819   1.083       .  S
C4815      C4816   1.407       .  A
C4816      H4820   1.084   1_545  S
C4821      C4822   1.405       .  A
C4821      C4826   1.398       .  A
C4823      H4828   1.083       .  S
C4824      C4825   1.405       .  A
C4824      H4829   1.082       .  S
C4825      C4826   1.404       .  A
C4826      H4830   1.083       .  S
C4831      C4832   1.404       .  A
C4831      C4836   1.399       .  A
C4831      H4837   1.083       .  S
C4832      C4833   1.405       .  A
C4833      C4834   1.397       .  A
C4833      H4838   1.082       .  S
C4834      C4835   1.403       .  A
C4834      H4839   1.083       .  S
C4835      C4836   1.405       .  A
C4836      H4840   1.082       .  S
C4841      C4842   1.400       .  A
C4841      C4846   1.398       .  A
C4841      H4847   1.082       .  S
C4843      H4848   1.083       .  S
C4844      C4845   1.399       .  A
C4844      H4849   1.082       .  S
C4845      C4846   1.410       .  A
C4846      H4850   1.083       .  S
C4851      C4852   1.400       .  A
C4851      C4856   1.399       .  A
C4852      C4853   1.410       .  A
C4853      C4854   1.397       .  A
C4853      H4858   1.083       .  S
C4854      C4855   1.399       .  A
C4854      H4859   1.082       .  S
C4855      C4856   1.410       .  A
C4856      H4860   1.083       .  S
C4861      C4862   1.407       .  A
C4861      C4866   1.401       .  A
C4861      H4867   1.084       .  S
C4862      C4863   1.409       .  A
C4863      C4864   1.411       .  A
C4863      H4868   1.083       .  S
C4864      C4865   1.409       .  A
C4864      H4869   1.083       .  S
C4865      C4866   1.405       .  A
C4866      H4870   1.083       .  S
C4871      C4872   1.402       .  A
C4871      C4876   1.397       .  A
C4871      H4877   1.083       .  S
C4872      C4873   1.406       .  A
C4873      C4874   1.395       .  A
C4873      H4878   1.082       .  S
C4874      C4875   1.401       .  A
C4874      H4879   1.083       .  S
C4875      C4876   1.406       .  A
C4876      H4880   1.083       .  S
C4881      C4882   1.407       .  A
C4881      C4886   1.397       .  A
C4881      H4887   1.083       .  S
C4882      C4883   1.402       .  A
C4883      C4884   1.396       .  A
C4883      H4888   1.083       .  S
C4884      C4885   1.406       .  A
C4884      H4889   1.082       .  S
C4885      C4886   1.402       .  A
C4886      H4890   1.083       .  S
C4891      C4892   1.409       .  A
C4891      C4896   1.396       .  A
C4891      H4897   1.083       .  S
C4892      C4893   1.400       .  A
C4893      C4894   1.397       .  A
C4893      H4898   1.082       .  S
C4894      C4895   1.409       .  A
C4894      H4899   1.083       .  S
C4895      C4896   1.400       .  A
C4896      H4900   1.082       .  S
C4901      C4902   1.409       .  A
C4901      C4906   1.396       .  A
C4901      H4907   1.083       .  S
C4902      C4903   1.400       .  A
C4903      C4904   1.397       .  A
C4903      H4908   1.082       .  S
C4904      C4905   1.409       .  A
C4904      H4909   1.083       .  S
C4905      C4906   1.400       .  A
C4906      H4910   1.082       .  S
C4911      C4912   1.405       .  A
C4911      C4916   1.400       .  A
C4911      H4917   1.083       .  S
C4913      C4914   1.407       .  A
C4913      H4918   1.083       .  S
C4914      H4919   1.083       .  S
C4915      C4916   1.407       .  A
C4916      H4920   1.084       .  S
C4921      C4922   1.399       .  A
C4921      C4926   1.395       .  A
C4921      H4927   1.083       .  S
C4922      C4923   1.405       .  A
C4923      C4924   1.392       .  A
C4923      H4928   1.083       .  S
C4924      C4925   1.399       .  A
C4924      H4929   1.083       .  S
C4925      C4926   1.405       .  A
C4926      H4930   1.083       .  S
C4931      C4932   1.405       .  A
C4931      C4936   1.403       .  A
C4931      H4937   1.082       .  S
C4932      C4933   1.406       .  A
C4933      C4934   1.402       .  A
C4933      H4938   1.083       .  S
C4934      C4935   1.404       .  A
C4934      H4939   1.083       .  S
C4935      C4936   1.406       .  A
C4936      H4940   1.083       .  S
C4941      C4942   1.400       .  A
C4941      C4946   1.396       .  A
C4941      H4947   1.083       .  S
C4942      C4943   1.405       .  A
C4943      C4944   1.393       .  A
C4943      H4948   1.083       .  S
C4944      C4945   1.399       .  A
C4944      H4949   1.083       .  S
C4945      C4946   1.405       .  A
C4946      H4950   1.083       .  S
C4951      C4952   1.405       .  A
C4951      C4956   1.403       .  A
C4952      C4953   1.406       .  A
C4953      C4954   1.403       .  A
C4953      H4958   1.083       .  S
C4954      C4955   1.405       .  A
C4954      H4959   1.083       .  S
C4955      C4956   1.406       .  A
C4956      H4960   1.083       .  S
C4961      C4962   1.405       .  A
C4961      C4966   1.397       .  A
C4961      H4967   1.082       .  S
C4962      C4963   1.404       .  A
C4963      C4964   1.399       .  A
C4963      H4968   1.083       .  S
C4964      C4965   1.406       .  A
C4964      H4969   1.082       .  S
C4965      C4966   1.403       .  A
C4966      H4970   1.083       .  S
C4971      C4972   1.404       .  A
C4971      C4976   1.398       .  A
C4971      H4977   1.083       .  S
C4972      C4973   1.406       .  A
C4973      C4974   1.399       .  A
C4973      H4978   1.082       .  S
C4974      C4975   1.404       .  A
C4974      H4979   1.083       .  S
C4975      C4976   1.406       .  A
C4976      H4980   1.082       .  S
C4981      C4982   1.399       .  A
C4981      C4986   1.398       .  A
C4981      H4987   1.082       .  S
C4982      C4983   1.410       .  A
C4983      C4984   1.396       .  A
C4983      H4988   1.083       .  S
C4984      C4985   1.399       .  A
C4984      H4989   1.083       .  S
C4985      C4986   1.410       .  A
C4986      H4990   1.083       .  S
C4991      C4992   1.409       .  A
C4991      C4996   1.397       .  A
C4991      H4997   1.083       .  S
C4992      C4993   1.399       .  A
C4993      C4994   1.396       .  A
C4993      H4998   1.083       .  S
C4994      C4995   1.409       .  A
C4994      H4999   1.083       .  S
C4995      C4996   1.400       .  A
C4996      H5000   1.082       .  S
C5001      C5002   1.404       .  A
C5001      C5006   1.398       .  A
C5001      H5007   1.084       .  S
C5002      C5003   1.409       .  A
C5003      C5004   1.403       .  A
C5003      H5008   1.084       .  S
C5004      C5005   1.405       .  A
C5004      H5009   1.083       .  S
C5005      C5006   1.407       .  A
C5006      H5010   1.084       .  S
C5011      C5012   1.405       .  A
C5011      C5016   1.405       .  A
C5011      H5017   1.083       .  S
C5012      C5013   1.409       .  A
C5013      C5014   1.402       .  A
C5013      H5018   1.083       .  S
C5014      C5015   1.404       .  A
C5014      H5019   1.083       .  S
C5015      C5016   1.410       .  A
C5016      H5020   1.083       .  S
C5021      C5026   1.404       .  A
C5021      H5027   1.084       .  S
C5022      C5023   1.404       .  A
C5023      C5024   1.400       .  A
C5023      H5028   1.084       .  S
C5024      C5025   1.408       .  A
C5026      H5030   1.083       .  S
C5031      C5032   1.405       .  A
C5031      C5036   1.397       .  A
C5032      C5033   1.403       .  A
C5033      C5034   1.396       .  A
C5033      H5038   1.083       .  S
C5034      C5035   1.405       .  A
C5034      H5039   1.082       .  S
C5035      C5036   1.403       .  A
C5036      H5040   1.083       .  S
C5041      C5042   1.403       .  A
C5041      C5046   1.398       .  A
C5041      H5047   1.083       .  S
C5042      C5043   1.405       .  A
C5043      C5044   1.395       .  A
C5043      H5048   1.082       .  S
C5044      C5045   1.403       .  A
C5045      C5046   1.405       .  A
C5046      H5050   1.082       .  S
C5051      C5052   1.411       .  A
C5051      C5056   1.398       .  A
C5052      C5053   1.399       .  A
C5053      C5054   1.398       .  A
C5054      C5055   1.410       .  A
C5054      H5059   1.083       .  S
C5055      C5056   1.399       .  A
C5056      H5060   1.083       .  S
C5061      C5062   1.399       .  A
C5061      C5066   1.399       .  A
C5061      H5067   1.083       .  S
C5062      C5063   1.411       .  A
C5063      C5064   1.399       .  A
C5063      H5068   1.083       .  S
C5064      C5065   1.399       .  A
C5064      H5069   1.082       .  S
C5065      C5066   1.411       .  A
C5066      H5070   1.083       .  S
C5071      C5072   1.405       .  A
C5071      C5076   1.402       .  A
C5071      H5077   1.083       .  S
C5072      C5073   1.408       .  A
C5073      C5074   1.400       .  A
C5073      H5078   1.083       .  S
C5074      C5075   1.404       .  A
C5074      H5079   1.083       .  S
C5075      C5076   1.408       .  A
C5076      H5080   1.083       .  S
C5081      C5082   1.405       .  A
C5081      C5086   1.403       .  A
C5081      H5087   1.082       .  S
C5082      C5083   1.407       .  A
C5083      C5084   1.405       .  A
C5083      H5088   1.083       .  S
C5084      C5085   1.406       .  A
C5085      C5086   1.407       .  A
C5086      H5090   1.083       .  S
C5091      C5092   1.405       .  A
C5091      C5096   1.395       .  A
C5091      H5097   1.083       .  S
C5092      C5093   1.398       .  A
C5093      C5094   1.392       .  A
C5093      H5098   1.083       .  S
C5094      C5095   1.405       .  A
C5094      H5099   1.083       .  S
C5095      C5096   1.400       .  A
C5096      H5100   1.083       .  S
C5101      C5102   1.408       .  A
C5101      C5106   1.406       .  A
C5101      H5107   1.083       .  S
C5102      C5103   1.405       .  A
C5103      C5104   1.403       .  A
C5103      H5108   1.082       .  S
C5104      C5105   1.407       .  A
C5104      H5109   1.083       .  S
C5105      C5106   1.406       .  A
C5106      H5110   1.082       .  S
C5111      C5112   1.400       .  A
C5111      C5116   1.395       .  A
C5112      C5113   1.405       .  A
C5113      C5114   1.392       .  A
C5113      H5118   1.083       .  S
C5114      C5115   1.399       .  A
C5114      H5119   1.083       .  S
C5115      C5116   1.405       .  A
C5116      H5120   1.083       .  S
C5121      C5122   1.406       .  A
C5122      C5123   1.404       .  A
C5123      C5124   1.397       .  A
C5123      H5128   1.083       .  S
C5124      H5129   1.082       .  S
C5125      C5126   1.404       .  A
C5126      H5130   1.083       .  S
C5131      C5132   1.405       .  A
C5131      C5136   1.397       .  A
C5131      H5137   1.082       .  S
C5132      C5133   1.404       .  A
C5133      C5134   1.397       .  A
C5133      H5138   1.083       .  S
C5134      C5135   1.405       .  A
C5134      H5139   1.082       .  S
C5135      C5136   1.403       .  A
C5136      H5140   1.083       .  S
C5141      C5142   1.399       .  A
C5141      C5146   1.398       .  A
C5141      H5147   1.082       .  S
C5142      C5143   1.410       .  A
C5143      C5144   1.396       .  A
C5143      H5148   1.083       .  S
C5144      C5145   1.398       .  A
C5145      C5146   1.410       .  A
C5146      H5150   1.083       .  S
C5151      C5152   1.410       .  A
C5151      C5156   1.397       .  A
C5151      H5157   1.083       .  S
C5152      C5153   1.399       .  A
C5154      C5155   1.410       .  A
C5154      H5159   1.083       .  S
C5156      H5160   1.083       .  S
C5161      C5162   1.406       .  A
C5161      C5166   1.404       .  A
C5161      H5167   1.083       .  S
C5162      C5163   1.409       .  A
C5163      C5164   1.403   1_554  A
C5164      C5165   1.405       .  A
C5164      H5169   1.083       .  S
C5165      C5166   1.409   1_556  A
C5166      H5170   1.083       .  S
C5171      C5172   1.408   1_556  A
C5171      C5176   1.401       .  A
C5171      H5177   1.084       .  S
C5172      C5173   1.405       .  A
C5173      C5174   1.401       .  A
C5173      H5178   1.084       .  S
C5174      C5175   1.409   1_554  A
C5174      H5179   1.084       .  S
C5175      C5176   1.405       .  A
C5176      H5180   1.084       .  S
C5181      C5182   1.409   1_556  A
C5181      C5186   1.402       .  A
C5181      H5187   1.084       .  S
C5182      C5183   1.404       .  A
C5183      C5184   1.399       .  A
C5183      H5188   1.084       .  S
C5184      C5185   1.408   1_554  A
C5184      H5189   1.084       .  S
C5185      C5186   1.405       .  A
C5186      H5190   1.083       .  S
C5191      C5192   1.404       .  A
C5191      C5196   1.398       .  A
C5191      H5197   1.083       .  S
C5192      C5193   1.406       .  A
C5193      C5194   1.399       .  A
C5193      H5198   1.082       .  S
C5194      C5195   1.405       .  A
C5194      H5199   1.083       .  S
C5195      C5196   1.405       .  A
C5196      H5200   1.082       .  S
C5201      C5202   1.405       .  A
C5201      C5206   1.397       .  A
C5201      H5207   1.082       .  S
C5202      C5203   1.404       .  A
C5203      C5204   1.398       .  A
C5203      H5208   1.083       .  S
C5204      C5205   1.405       .  A
C5204      H5209   1.082       .  S
C5205      C5206   1.404       .  A
C5206      H5210   1.083       .  S
C5211      C5212   1.399       .  A
C5211      C5216   1.398       .  A
C5211      H5217   1.082       .  S
C5212      C5213   1.411       .  A
C5213      C5214   1.398       .  A
C5213      H5218   1.083       .  S
C5214      C5215   1.399       .  A
C5214      H5219   1.083       .  S
C5215      C5216   1.411       .  A
C5216      H5220   1.083       .  S
C5221      C5222   1.399       .  A
C5221      C5226   1.400       .  A
C5221      H5227   1.082       .  S
C5222      C5223   1.411       .  A
C5223      C5224   1.399       .  A
C5223      H5228   1.083       .  S
C5224      C5225   1.399       .  A
C5224      H5229   1.083       .  S
C5225      C5226   1.411       .  A
C5226      H5230   1.083       .  S
C5231      C5232   1.406       .  A
C5231      C5236   1.405       .  A
C5231      H5237   1.083       .  S
C5233      C5234   1.404   1_554  A
C5233      H5238   1.083   1_554  S
C5234      H5239   1.083       .  S
C5235      C5236   1.410   1_556  A
C5236      H5240   1.083       .  S
C5241      C5242   1.407       .  A
C5241      C5246   1.398       .  A
C5241      H5247   1.083       .  S
C5242      C5243   1.400       .  A
C5243      C5244   1.392       .  A
C5243      H5248   1.083       .  S
C5244      C5245   1.406       .  A
C5244      H5249   1.083       .  S
C5245      C5246   1.402       .  A
C5246      H5250   1.083       .  S
C5251      C5252   1.409       .  A
C5251      C5256   1.400       .  A
C5251      H5257   1.083       .  S
C5252      C5253   1.405       .  A
C5253      C5254   1.408       .  A
C5253      H5258   1.082       .  S
C5254      C5255   1.411       .  A
C5254      H5259   1.083       .  S
C5255      C5256   1.402       .  A
C5256      H5260   1.082       .  S
C5261      C5262   1.397       .  A
C5261      C5266   1.390       .  A
C5261      H5267   1.083       .  S
C5262      C5263   1.407       .  A
C5263      C5264   1.398       .  A
C5263      H5268   1.083       .  S
C5264      C5265   1.400       .  A
C5264      H5269   1.083       .  S
C5265      C5266   1.405       .  A
C5266      H5270   1.083       .  S
C5271      C5272   1.406       .  A
C5271      C5276   1.403       .  A
C5271      H5277   1.083       .  S
C5272      C5273   1.404       .  A
C5273      C5274   1.401       .  A
C5273      H5278   1.083       .  S
C5274      C5275   1.406       .  A
C5274      H5279   1.083       .  S
C5275      C5276   1.405       .  A
C5276      H5280   1.082       .  S
C5281      C5282   1.405       .  A
C5281      C5286   1.404       .  A
C5281      H5287   1.083       .  S
C5282      C5283   1.407       .  A
C5283      C5284   1.404       .  A
C5283      H5288   1.083       .  S
C5284      C5285   1.405       .  A
C5284      H5289   1.083       .  S
C5285      C5286   1.407       .  A
C5286      H5290   1.082       .  S
C5291      C5292   1.404       .  A
C5291      C5296   1.401       .  A
C5291      H5297   1.083       .  S
C5292      C5293   1.404       .  A
C5293      C5294   1.398       .  A
C5293      H5298   1.082       .  S
C5294      C5295   1.404       .  A
C5294      H5299   1.083       .  S
C5295      C5296   1.405       .  A
C5296      H5300   1.083       .  S
C5301      C5302   1.397       .  A
C5301      C5306   1.392       .  A
C5301      H5307   1.082       .  S
C5302      C5303   1.408       .  A
C5303      C5304   1.396       .  A
C5303      H5308   1.083       .  S
C5304      C5305   1.398       .  A
C5304      H5309   1.083       .  S
C5305      C5306   1.406       .  A
C5306      H5310   1.083       .  S
C5311      C5312   1.409       .  A
C5311      C5316   1.396       .  A
C5311      H5317   1.084       .  S
C5312      C5313   1.397       .  A
C5313      C5314   1.398       .  A
C5313      H5318   1.082       .  S
C5314      C5315   1.410       .  A
C5314      H5319   1.083       .  S
C5315      C5316   1.398       .  A
C5316      H5320   1.083       .  S
C5321      C5322   1.401       .  A
C5321      C5326   1.393       .  A
C5321      H5327   1.083       .  S
C5322      C5323   1.403       .  A
C5323      C5324   1.393       .  A
C5323      H5328   1.084       .  S
C5324      C5325   1.400       .  A
C5324      H5329   1.083       .  S
C5325      C5326   1.402       .  A
C5326      H5330   1.084       .  S
C5331      C5332   1.406       .  A
C5331      C5336   1.394       .  A
C5331      H5337   1.083       .  S
C5332      C5333   1.405       .  A
C5333      C5334   1.405       .  A
C5333      H5338   1.083       .  S
C5334      C5335   1.406       .  A
C5334      H5339   1.083       .  S
C5335      C5336   1.399       .  A
C5336      H5340   1.084       .  S
C5341      C5342   1.395       .  A
C5341      C5346   1.396       .  A
C5341      H5347   1.083       .  S
C5342      C5343   1.417       .  A
C5343      C5344   1.410       .  A
C5343      H5348   1.075       .  S
C5344      C5345   1.399       .  A
C5344      H5349   1.082       .  S
C5345      C5346   1.416       .  A
C5346      H5350   1.082       .  S
C5351      C5352   1.399       .  A
C5351      C5356   1.410       .  A
C5351      H5357   1.083       .  S
C5353      H5358   1.083       .  S
C5354      C5355   1.395       .  A
C5354      H5359   1.084       .  S
C5355      C5356   1.417       .  A
C5356      H5360   1.080       .  S
C5361      C5362   1.405       .  A
C5361      C5366   1.403       .  A
C5361      H5367   1.083       .  S
C5362      C5363   1.407       .  A
C5363      C5364   1.407       .  A
C5363      H5368   1.083       .  S
C5364      C5365   1.406       .  A
C5365      C5366   1.407       .  A
C5366      H5370   1.083       .  S
C5371      C5372   1.396       .  A
C5371      C5376   1.386       .  A
C5371      H5377   1.083       .  S
C5372      C5373   1.406       .  A
C5373      C5374   1.395       .  A
C5373      H5378   1.083       .  S
C5374      C5375   1.398       .  A
C5374      H5379   1.083       .  S
C5375      C5376   1.405       .  A
C5376      H5380   1.083       .  S
C5381      C5382   1.407       .  A
C5381      C5386   1.405       .  A
C5381      H5387   1.083       .  S
C5382      C5383   1.407       .  A
C5383      C5384   1.401       .  A
C5383      H5388   1.083       .  S
C5384      C5385   1.406       .  A
C5384      H5389   1.083       .  S
C5385      C5386   1.408       .  A
C5386      H5390   1.083       .  S
C5391      C5392   1.408       .  A
C5391      C5396   1.397       .  A
C5391      H5397   1.083       .  S
C5392      C5393   1.402       .  A
C5393      C5394   1.400       .  A
C5393      H5398   1.083       .  S
C5394      C5395   1.407       .  A
C5395      C5396   1.400       .  A
C5396      H5400   1.083       .  S
C5401      C5402   1.405       .  A
C5401      C5406   1.400       .  A
C5401      H5407   1.083       .  S
C5402      C5403   1.401       .  A
C5403      C5404   1.398       .  A
C5403      H5408   1.083       .  S
C5404      C5405   1.406       .  A
C5404      H5409   1.083       .  S
C5405      C5406   1.404       .  A
C5406      H5410   1.083       .  S
C5411      C5412   1.403       .  A
C5411      C5416   1.398       .  A
C5411      H5417   1.083       .  S
C5412      C5413   1.407       .  A
C5413      C5414   1.405       .  A
C5413      H5418   1.083       .  S
C5414      C5415   1.405       .  A
C5414      H5419   1.083       .  S
C5415      C5416   1.405       .  A
C5416      H5420   1.083       .  S
C5421      C5422   1.406       .  A
C5421      C5426   1.398       .  A
C5421      H5427   1.083       .  S
C5422      C5423   1.405       .  A
C5423      C5424   1.404       .  A
C5423      H5428   1.082       .  S
C5424      C5425   1.406       .  A
C5424      H5429   1.083       .  S
C5425      C5426   1.403       .  A
C5426      H5430   1.083       .  S
C5431      C5432   1.408       .  A
C5431      H5437   1.083       .  S
C5432      C5433   1.404       .  A
C5433      C5434   1.397       .  A
C5433      H5438   1.084       .  S
C5434      H5439   1.083       .  S
C5435      C5436   1.406       .  A
C5436      H5440   1.083       .  S
