geometry optimzed in LAMMPS
_audit_creation_date              2020-11-30 
_audit_creation_method            'lammps2cif' 
_symmetry_space_group_name_H-M    'P1' 
_symmetry_Int_Tables_number       1 
_symmetry_cell_setting            triclinic 
loop_ 
_symmetry_equiv_pos_as_xyz 
  x,y,z 
_cell_length_a                    50.57334677 
_cell_length_b                    50.761648835345746 
_cell_length_c                    61.73116497449178 
_cell_angle_alpha                 90.15275195012187 
_cell_angle_beta                  89.96226786046212 
_cell_angle_gamma                 120.1485292944128 
loop_ 
_atom_site_label 
_atom_site_type_symbol 
_atom_site_fract_x 
_atom_site_fract_y 
_atom_site_fract_z 
_atom_site_charge 
O1          O  0.02717348  0.13647573  0.32937493    -0.87000
C2          C  0.09526589  0.18875708  0.28631835     0.89000
Mg3        Mg  0.02192624  0.15395225  0.35987644     1.58100
O4          O  0.10514713  0.13403062  0.31510667    -0.86700
O5          O  0.03231027  0.09945744  0.31589277    -0.74000
C6          C  0.15775395  0.21689246  0.40471464     0.94100
O7          O  0.05823175  0.20872491  0.32132476    -0.73900
O8          O  0.13342170  0.21838175  0.40545041    -0.81400
Mg9        Mg  0.03233699  0.16427422  0.30156201     1.58000
C10         C  0.19208462  0.16399086  0.34153145     0.94000
O11         O  0.00503242  0.12394910  0.27852090    -0.79600
H12         H  0.09176350  0.09084812  0.32276269    -0.05000
C13         C  0.14986640  0.22055282  0.34031261     0.89000
O14         O  0.04593386  0.13216248  0.37795126    -0.74100
O15         O  0.07435428  0.16509015  0.29413410    -0.86900
O16         O  0.17789024  0.16022186  0.32376377    -0.79700
C17         C  0.13445990  0.14287472  0.26159011     0.94100
C18         C  0.01213185  0.11168383  0.26326881     0.94000
Mg19       Mg  0.13704564  0.16586436  0.36667744     1.58000
O20         O  0.16504835  0.20774186  0.38779022    -0.79600
O21         O  0.11158598  0.12092545  0.34752699    -0.73900
O22         O  0.10624389  0.13476169  0.26305110    -0.79700
O23         O  0.48732470  0.16249947  0.30930322    -0.81400
O24         O  0.06281644  0.19241342  0.40578744    -0.79700
C25         C  0.10258498  0.11433532  0.32803017     0.88400
O26         O  0.09472193  0.16413461  0.37414928    -0.86900
O27         O  0.14125932  0.19313395  0.33888584    -0.87000
O28         O  0.13715632  0.23027690  0.35329152    -0.74100
Mg29       Mg  0.07083787  0.12112999  0.29054205     1.58000
O30         O  0.15298507  0.15677359  0.27701460    -0.81400
H31         H  0.00037539  0.09314176  0.33841825    -0.05200
O32         O  0.06437074  0.19564544  0.35382700    -0.86700
H33         H  0.07855779  0.23892333  0.34595822    -0.05000
H34         H  0.07897933  0.12581414  0.39134740    -0.05200
C35         C  0.06735256  0.21537373  0.34079573     0.88400
C36         C  0.01894991  0.10912554  0.32827976     0.89000
C37         C  0.07367551  0.14029719  0.38169921     0.89000
H38         H  0.16836318  0.23657037  0.33012884    -0.05100
O39         O  0.12302173  0.19720716  0.29019713    -0.74200
Mg40       Mg  0.09854752  0.20784418  0.37865283     1.58000
H41         H  0.08981208  0.20288890  0.27638389    -0.05100
C42         C  0.47727967  0.16676123  0.32709638     0.94000
O43         O  0.01655086  0.17355943  0.39155004    -0.81400
C44         C  0.03519791  0.18638706  0.40710076     0.94100
O45         O  0.03594918  0.10935888  0.26424979    -0.81400
Mg46       Mg  0.14713973  0.17596664  0.30861073     1.58200
O47         O  0.99146775  0.17033690  0.34485665    -0.79700
O48         O  0.18199469  0.16840876  0.35917634    -0.81400
C49         C  0.17385178  0.10079108  0.18748888     0.03600
C50         C  0.17729583  0.07469934  0.18794728     0.03600
C51         C  0.18999645  0.06807684  0.16997000    -0.16900
C52         C  0.19862514  0.08643572  0.15151123     0.03600
C53         C  0.19459780  0.11190426  0.15082672     0.03600
C54         C  0.18242784  0.11900414  0.16878815    -0.16900
H55         H  0.17984630  0.13894491  0.16826053     0.05700
H56         H  0.19209018  0.04783700  0.17001457     0.05700
C57         C  0.41498135  0.05640536  0.18353950     0.03600
C58         C  0.44442437  0.08224962  0.18309894     0.03600
C59         C  0.45462328  0.10045022  0.16454337    -0.16900
C60         C  0.43577622  0.09337121  0.14618292     0.03600
C61         C  0.40624381  0.06675682  0.14639090     0.03600
C62         C  0.39628878  0.04866301  0.16519631    -0.16900
H63         H  0.37390493  0.02829117  0.16552957     0.05700
H64         H  0.47694960  0.12091099  0.16471395     0.05700
O65         O  0.14430535  0.44673314  0.33555748    -0.87000
C66         C  0.07475441  0.42655859  0.37763381     0.89000
Mg67       Mg  0.14724061  0.46764541  0.30482646     1.58100
O68         O  0.07037428  0.36400442  0.34945235    -0.86700
O69         O  0.14297296  0.40620154  0.34861151    -0.74000
C70         C  0.01055051  0.38685042  0.25850607     0.94100
O71         O  0.10792648  0.48267794  0.34285157    -0.73900
O72         O  0.03312302  0.41404466  0.25913298    -0.81400
Mg73       Mg  0.13687376  0.46837735  0.36319311     1.58000
C74         C  0.48424092  0.30002913  0.32425211     0.94000
O75         O  0.16673040  0.45952109  0.38720842    -0.79600
H76         H  0.08673982  0.33650006  0.34208915    -0.05000
C77         C  0.01866046  0.39766372  0.32326417     0.89000
O78         O  0.12591730  0.42134960  0.28724452    -0.74100
O79         O  0.09722352  0.42557059  0.37084628    -0.86900
O80         O  0.99938744  0.31169607  0.34154044    -0.79700
C81         C  0.04207548  0.34334865  0.40328697     0.94100
C82         C  0.16274882  0.43942045  0.40124408     0.94000
Mg83       Mg  0.03599102  0.35839408  0.29716992     1.58000
O84         O  0.00656967  0.36749598  0.27315051    -0.79600
O85         O  0.06446144  0.34342237  0.31737077    -0.73900
O86         O  0.06995845  0.36408145  0.40130122    -0.79700
O87         O  0.17917426  0.01373868  0.35506581    -0.81400
O88         O  0.10468132  0.46459656  0.25819189    -0.79700
C89         C  0.07422801  0.34740568  0.33673790     0.88400
O90         O  0.07624194  0.40114955  0.28889365    -0.86900
O91         O  0.02940458  0.38064370  0.32468294    -0.87000
O92         O  0.03022979  0.42042439  0.31064437    -0.74100
Mg93       Mg  0.10463614  0.38733407  0.37394393     1.58000
O94         O  0.02290973  0.33714922  0.38804693    -0.81400
H95         H  0.17403678  0.43384590  0.32635093    -0.05200
O96         O  0.10295335  0.46310745  0.31045420    -0.86700
H97         H  0.08551417  0.48956411  0.31821069    -0.05000
H98         H  0.09593171  0.38104444  0.27311579    -0.05200
C99         C  0.09842524  0.47901270  0.32341367     0.88400
C100        C  0.15483552  0.42948859  0.33651260     0.89000
C101        C  0.09900850  0.40040457  0.28250022     0.89000
H102        H  0.99939012  0.39345202  0.33329147    -0.05100
O103        O  0.04767979  0.40592935  0.37304112    -0.74200
Mg104      Mg  0.06898850  0.43964006  0.28543588     1.58000
H105        H  0.07826265  0.44598240  0.38713163    -0.05100
C106        C  0.18828854  0.02801372  0.33722646     0.94000
O107        O  0.15095291  0.49063348  0.27291653    -0.81400
C108        C  0.13269572  0.48565527  0.25728611     0.94100
O109        O  0.14042776  0.41225152  0.39988989    -0.81400
Mg110      Mg  0.02642937  0.35974206  0.35565028     1.58200
O111        O  0.17510990  0.01585183  0.31937511    -0.79700
O112        O  0.49269257  0.31405772  0.30624536    -0.81400
O113        O  0.31148405  0.35995114  0.34089377    -0.87000
C114        C  0.36651678  0.43046982  0.38216584     0.89000
Mg115      Mg  0.32673661  0.35575290  0.30937642     1.58100
O116        O  0.30742949  0.43718796  0.35766090    -0.86700
O117        O  0.27514871  0.36498503  0.35609026    -0.74000
C118        C  0.38265199  0.49031727  0.26452753     0.94100
O119        O  0.38558279  0.39354943  0.34588618    -0.73900
O120        O  0.38669777  0.46770054  0.26604546    -0.81400
Mg121      Mg  0.34297609  0.36727979  0.36703606     1.58000
C122        C  0.32745796  0.02111047  0.33119367     0.94000
O123        O  0.30529330  0.33933491  0.39124720    -0.79600
H124        H  0.26295311  0.42183147  0.35275906    -0.05000
C125        C  0.39108252  0.48455054  0.32970750     0.89000
O126        O  0.30221516  0.37858338  0.29352322    -0.74100
O127        O  0.34268932  0.40858854  0.37516116    -0.86900
O128        O  0.32812039  0.50917284  0.34935453    -0.79700
C129        C  0.31909635  0.46461028  0.41160783     0.94100
C130        C  0.29208365  0.34462290  0.40678144     0.94000
Mg131      Mg  0.33220516  0.46835983  0.30502379     1.58000
O132        O  0.36898321  0.49639805  0.27937310    -0.79600
O133        O  0.28989328  0.44183376  0.32655078    -0.73900
O134        O  0.31516424  0.43793990  0.40931584    -0.79700
O135        O  0.34287278  0.32351150  0.35833627    -0.81400
O136        O  0.36089958  0.39870502  0.26376482    -0.79700
C137        C  0.28585510  0.43336315  0.34615816     0.88400
O138        O  0.33290691  0.42753988  0.29736169    -0.86900
O139        O  0.36373007  0.47657955  0.33151970    -0.87000
O140        O  0.40008455  0.47092026  0.31701601    -0.74100
Mg141      Mg  0.29834656  0.40316588  0.38149129     1.58000
O142        O  0.32958063  0.48391713  0.39625721    -0.81400
H143        H  0.26739640  0.33302674  0.33326148    -0.05200
O144        O  0.36768100  0.39870809  0.31512176    -0.86700
H145        H  0.41211587  0.41332692  0.31947582    -0.05000
H146        H  0.29305959  0.41041612  0.28163951    -0.05200
C147        C  0.38935736  0.40208021  0.32630877     0.88400
C148        C  0.28409758  0.35162657  0.34308878     0.89000
C149        C  0.30894284  0.40593840  0.29032594     0.89000
H150        H  0.40768364  0.50302379  0.33966457    -0.05100
O151        O  0.37267127  0.45773945  0.37914194    -0.74200
Mg152      Mg  0.37722536  0.43292037  0.29153184     1.58000
H153        H  0.38266271  0.42634508  0.39081239    -0.05100
C154        C  0.34552027  0.31329239  0.34009320     0.94000
O155        O  0.34445347  0.35218184  0.27640244    -0.81400
C156        C  0.35546182  0.37158969  0.26117954     0.94100
O157        O  0.28900289  0.36793354  0.40691004    -0.81400
Mg158      Mg  0.34788133  0.48047702  0.36312882     1.58200
O159        O  0.34559780  0.32621685  0.32241933    -0.79700
O160        O  0.33104966  0.01090322  0.31328186    -0.81400
C161        C  0.40357029  0.34766442  0.18338845     0.03600
C162        C  0.43071515  0.34616779  0.18317367     0.03600
C163        C  0.43825700  0.33533905  0.16444868    -0.16900
C164        C  0.41978983  0.32728425  0.14572378     0.03600
C165        C  0.39404010  0.33126415  0.14580319     0.03600
C166        C  0.38609513  0.34102605  0.16456596    -0.16900
H167        H  0.36533653  0.34235370  0.16474652     0.05700
H168        H  0.45862103  0.33336063  0.16440425     0.05700
O169        O  0.22309079  0.02890136  0.00546141    -0.87000
C170        C  0.23728954  0.47643668  0.04879136     0.89000
Mg171      Mg  0.19959981  0.01113935  0.97533001     1.58100
O172        O  0.30200232  0.02906498  0.01894764    -0.86700
O173        O  0.26610871  0.06567050  0.01834758    -0.74000
C174        C  0.26590640  0.44274016  0.93036866     0.94100
O175        O  0.17911270  0.45728253  0.01479660    -0.73900
O176        O  0.24042339  0.44189513  0.93112546    -0.81400
Mg177      Mg  0.20013074  0.50251773  0.03369507     1.58000
C178        C  0.35732594  0.99683922  0.99312354     0.94000
O179        O  0.21524199  0.04375272  0.05596013    -0.79600
H180        H  0.33281589  0.07160612  0.01028364    -0.05000
C181        C  0.25721698  0.44167367  0.99567878     0.89000
O182        O  0.24508776  0.03068900  0.95678888    -0.74100
O183        O  0.24064684  0.50022112  0.04085654    -0.86900
O184        O  0.34779305  0.00287256  0.01044962    -0.79700
C185        C  0.32369297  0.02201381  0.07260229     0.94100
C186        C  0.23474951  0.05531316  0.07123159     0.94000
Mg187      Mg  0.30009449  0.99444237  0.96787094     1.58000
O188        O  0.28410028  0.45212325  0.94648018    -0.79600
O189        O  0.32141787  0.04014670  0.98635085    -0.73900
O190        O  0.30317940  0.02948177  0.07132571    -0.79700
O191        O  0.15757483  0.50553014  0.02607332    -0.81400
O192        O  0.19751179  0.46879557  0.93002305    -0.79700
C193        C  0.31939325  0.04790986  0.00559473     0.88400
O194        O  0.25994398  0.99738995  0.96066079    -0.86900
O195        O  0.27727427  0.46882350  0.99629315    -0.87000
O196        O  0.23414233  0.43228704  0.98328607    -0.74100
Mg197      Mg  0.28217785  0.04354368  0.04371760     1.58000
O198        O  0.32807565  0.00794179  0.05722829    -0.81400
H199        H  0.24055973  0.07210675  0.99590778    -0.05200
O200        O  0.19829782  0.46897045  0.98219628    -0.86700
H201        H  0.16736923  0.42632532  0.99049161    -0.05000
H202        H  0.28350791  0.03505857  0.94290916    -0.05200
C203        C  0.18088024  0.44991558  0.99540734     0.88400
C204        C  0.24283327  0.05614150  0.00617672     0.89000
C205        C  0.26367044  0.02138264  0.95287986     0.89000
H206        H  0.25911020  0.42564503  0.00612721    -0.05100
O207        O  0.25615566  0.46744081  0.04498724    -0.74200
Mg208      Mg  0.21831065  0.45446295  0.95761802     1.58000
H209        H  0.21757319  0.46270242  0.05884777    -0.05100
C210        C  0.14307166  0.50103387  0.00834073     0.94000
O211        O  0.17371325  0.49157551  0.94405810    -0.81400
C212        C  0.17761220  0.47709332  0.92874957     0.94100
O213        O  0.26049467  0.05672874  0.07017216    -0.81400
Mg214      Mg  0.30144882  0.48734973  0.02617459     1.58200
O215        O  0.15353381  0.49722983  0.99060448    -0.79700
O216        O  0.34205839  0.99059683  0.97562275    -0.81400
O217        O  0.28251929  0.30688133  0.99130883    -0.87000
C218        C  0.26756810  0.23559509  0.95204216     0.89000
Mg219      Mg  0.30153290  0.31177801  0.02293543     1.58100
O220        O  0.20217826  0.22901466  0.97735262    -0.86700
O221        O  0.24089604  0.30143088  0.97648100    -0.74000
C222        C  0.22633869  0.17802785  0.07005194     0.94100
O223        O  0.32384642  0.27454061  0.98751277    -0.73900
O224        O  0.25285500  0.20116565  0.06836845    -0.81400
Mg225      Mg  0.30714465  0.29948805  0.96549167     1.58000
C226        C  0.13832137  0.14486832  0.00440858     0.94000
O227        O  0.29706170  0.32574298  0.93970555    -0.79600
H228        H  0.17254388  0.24366602  0.98196023    -0.05000
C229        C  0.23890575  0.18268758  0.00549735     0.89000
O230        O  0.25405451  0.28862587  0.03877821    -0.74100
O231        O  0.26554907  0.25773112  0.95813448    -0.86900
O232        O  0.15080312  0.15732986  0.98649189    -0.79700
C233        C  0.18468250  0.19899785  0.92439150     0.94100
C234        C  0.27697527  0.31964217  0.92511190     0.94000
Mg235      Mg  0.19580860  0.19828381  0.03004464     1.58000
O236        O  0.20602168  0.17156464  0.05557125    -0.79600
O237        O  0.17927689  0.22381825  0.00826984    -0.73900
O238        O  0.20742172  0.22593027  0.92559391    -0.79700
O239        O  0.35076134  0.34363732  0.97398673    -0.81400
O240        O  0.29424176  0.27072443  0.06932691    -0.79700
C241        C  0.18407014  0.23248639  0.98869766     0.88400
O242        O  0.23699920  0.23965858  0.03700427    -0.86900
O243        O  0.21947456  0.19049236  0.00378973    -0.87000
O244        O  0.26206555  0.19697720  0.01768305    -0.74100
Mg245      Mg  0.22577971  0.26197301  0.95240281     1.58000
O246        O  0.17687314  0.18091562  0.94034656    -0.81400
H247        H  0.26643369  0.33476385  0.99816452    -0.05200
O248        O  0.30013245  0.26918196  0.01805924    -0.86700
H249        H  0.33078418  0.25565770  0.01427280    -0.05000
H250        H  0.21360636  0.25673143  0.05168382    -0.05200
C251        C  0.31892312  0.26625291  0.00714064     0.88400
C252        C  0.26379784  0.31546789  0.98891413     0.89000
C253        C  0.23408948  0.26127519  0.04306049     0.89000
H254        H  0.23666433  0.16388954  0.99581558    -0.05100
O255        O  0.24674548  0.20842957  0.95612749    -0.74200
Mg256      Mg  0.27680746  0.23568362  0.04236815     1.58000
H257        H  0.28776253  0.23943925  0.94333936    -0.05100
C258        C  0.36331153  0.35339598  0.99240846     0.94000
O259        O  0.32284512  0.31713620  0.05598182    -0.81400
C260        C  0.31518784  0.29830627  0.07149410     0.94100
O261        O  0.25038064  0.29638896  0.92622009    -0.81400
Mg262      Mg  0.19933572  0.18577674  0.97262084     1.58200
O263        O  0.34971879  0.34050482  0.00988638    -0.79700
O264        O  0.15226844  0.15481871  0.02231271    -0.81400
O265        O  0.02414572  0.21620934  0.99502262    -0.87000
C266        C  0.47231358  0.23324949  0.95260686     0.89000
Mg267      Mg  0.00828099  0.19647498  0.02671725     1.58100
O268        O  0.03184146  0.29777598  0.97885984    -0.86700
O269        O  0.06235864  0.25552329  0.97955725    -0.74000
C270        C  0.45125905  0.27679179  0.07169062     0.94100
O271        O  0.45138589  0.17869563  0.98970262    -0.73900
O272        O  0.44739815  0.24994191  0.07214930    -0.81400
Mg273      Mg  0.49370636  0.19263042  0.96828738     1.58000
C274        C  0.00953517  0.36158344  0.00530717     0.94000
O275        O  0.03105860  0.20052754  0.94338033    -0.79600
H276        H  0.07603114  0.32488408  0.98610205    -0.05000
C277        C  0.44668375  0.26249447  0.00731071     0.89000
O278        O  0.03332293  0.24343757  0.04313062    -0.74100
O279        O  0.49608614  0.23481130  0.95921948    -0.86900
O280        O  0.01024229  0.34931161  0.98742919    -0.79700
C281        C  0.02229288  0.31748313  0.92540912     0.94100
C282        C  0.04612632  0.21902319  0.92816739     0.94000
Mg283      Mg  0.00436605  0.30366086  0.03217245     1.58000
O284        O  0.46609122  0.29516373  0.05637018    -0.79600
O285        O  0.04712725  0.31792950  0.01109560    -0.73900
O286        O  0.03000380  0.29710550  0.92678675    -0.79700
O287        O  0.49219094  0.14840906  0.97757684    -0.81400
O288        O  0.46983825  0.20031521  0.07385852    -0.79700
C289        C  0.05257506  0.31410739  0.99158177     0.88400
O290        O  0.00253862  0.26183964  0.04119878    -0.86900
O291        O  0.47439620  0.28023844  0.00522257    -0.87000
O292        O  0.43644382  0.24054877  0.02066044    -0.74100
Mg293      Mg  0.04172177  0.27327601  0.95422913     1.58000
O294        O  0.00885498  0.32262312  0.94090582    -0.81400
H295        H  0.06762801  0.23007400  0.00261619    -0.05200
O296        O  0.46717274  0.19892110  0.02184858    -0.86700
H297        H  0.42288805  0.17172573  0.01495878    -0.05000
H298        H  0.04276728  0.28380222  0.05652001    -0.05200
C299        C  0.44625546  0.18250392  0.00928638     0.88400
C300        C  0.05190497  0.23345883  0.99278488     0.89000
C301        C  0.02660509  0.26380019  0.04755734     0.89000
H302        H  0.43080728  0.26539116  0.99728873    -0.05100
O303        O  0.46592500  0.25387754  0.95691240    -0.74200
Mg304      Mg  0.45722743  0.22326590  0.04630435     1.58000
H305        H  0.45616872  0.21344089  0.94346584    -0.05100
C306        C  0.48877036  0.13516713  0.99570689     0.94000
O307        O  0.49119603  0.17501387  0.05976970    -0.81400
C308        C  0.47798139  0.18027089  0.07534930     0.94100
O309        O  0.05104319  0.24629202  0.92817737    -0.81400
Mg310      Mg  0.49087695  0.30063403  0.97372388     1.58200
O311        O  0.48839179  0.14792015  0.01340333    -0.79700
O312        O  0.00574935  0.34776370  0.02319900    -0.81400
O313        O  0.14165423  0.02545846  0.67162013    -0.87000
C314        C  0.19652085  0.09815792  0.71065302     0.89000
Mg315      Mg  0.15660942  0.02121116  0.63988134     1.58100
O316        O  0.13631952  0.10192418  0.68510206    -0.86700
O317        O  0.10455094  0.02963366  0.68622264    -0.74000
C318        C  0.21203873  0.15517424  0.59386963     0.94100
O319        O  0.21563277  0.05985427  0.67551647    -0.73900
O320        O  0.21616713  0.13255127  0.59481038    -0.81400
Mg321      Mg  0.17385055  0.03419762  0.69764356     1.58000
C322        C  0.15541349  0.18661125  0.65863147     0.94000
O323        O  0.13792227  0.00749386  0.72422533    -0.79600
H324        H  0.09162341  0.08601097  0.68067025    -0.05000
C325        C  0.21959844  0.15075384  0.65790188     0.89000
O326        O  0.13132094  0.04323974  0.62403216    -0.74100
O327        O  0.17283114  0.07536182  0.70441649    -0.86900
O328        O  0.15430898  0.17335063  0.67639333    -0.79700
C329        C  0.14644677  0.13056570  0.73816230     0.94100
C330        C  0.12356556  0.01340839  0.73866094     0.94000
Mg331      Mg  0.16076114  0.13352958  0.63311780     1.58000
O332        O  0.19839197  0.16106485  0.60877062    -0.79600
O333        O  0.11810776  0.10684113  0.65439468    -0.73900
O334        O  0.14636365  0.10556264  0.73683251    -0.79700
O335        O  0.17393012  0.49056619  0.68944003    -0.81400
O336        O  0.19154120  0.06308104  0.59331384    -0.79700
C337        C  0.11441032  0.09786487  0.67388380     0.88400
O338        O  0.16191746  0.09256296  0.62602182    -0.86900
O339        O  0.19213888  0.14237176  0.65951274    -0.87000
O340        O  0.22898126  0.13698745  0.64568477    -0.74100
Mg341      Mg  0.12813987  0.06944155  0.71022236     1.58000
O342        O  0.15546865  0.14908347  0.72242173    -0.81400
H343        H  0.09772205  0.99651470  0.66467553    -0.05200
O344        O  0.19726475  0.06465763  0.64485286    -0.86700
H345        H  0.24176965  0.07936121  0.64888880    -0.05000
H346        H  0.12122196  0.07398824  0.61133013    -0.05200
C347        C  0.21911904  0.06822402  0.65590418     0.88400
C348        C  0.11407533  0.01610058  0.67391155     0.89000
C349        C  0.13771414  0.07030639  0.61991463     0.89000
H350        H  0.23595070  0.16969107  0.66765028    -0.05100
O351        O  0.20153233  0.12493942  0.70698175    -0.74200
Mg352      Mg  0.20667256  0.09819486  0.62068600     1.58000
H353        H  0.21349983  0.09527592  0.71926891    -0.05100
C354        C  0.17678958  0.48044627  0.67119770     0.94000
O355        O  0.17293635  0.01642365  0.60635631    -0.81400
C356        C  0.18429705  0.03536143  0.59084288     0.94100
O357        O  0.11923962  0.03585249  0.73681115    -0.81400
Mg358      Mg  0.17544407  0.14606176  0.69044633     1.58200
O359        O  0.17706312  0.99333847  0.65332195    -0.79700
O360        O  0.15992171  0.17705157  0.64070851    -0.81400
C361        C  0.07781604  0.17255653  0.85204873     0.03600
C362        C  0.10387649  0.16921787  0.85128781     0.03600
C363        C  0.11162000  0.16013125  0.83211573    -0.16900
C364        C  0.09377387  0.15390797  0.81354231     0.03600
C365        C  0.06682888  0.15567142  0.81424247     0.03600
C366        C  0.05913890  0.16522130  0.83351338    -0.16900
H367        H  0.03871918  0.16708603  0.83404860     0.05700
H368        H  0.13220840  0.15851341  0.83151831     0.05700
C369        C  0.06556823  0.40557643  0.85512538     0.03600
C370        C  0.09452749  0.43292713  0.85540946     0.03600
C371        C  0.10408095  0.45186424  0.83702032    -0.16900
C372        C  0.08579331  0.44426143  0.81846337     0.03600
C373        C  0.05710448  0.41730238  0.81819596     0.03600
C374        C  0.04711679  0.39843981  0.83649431    -0.16900
H375        H  0.02528682  0.37741430  0.83589317     0.05700
H376        H  0.12598842  0.47283152  0.83714594     0.05700
O377        O  0.46606039  0.12419565  0.67408541    -0.87000
C378        C  0.39648938  0.10417930  0.71650063     0.89000
Mg379      Mg  0.46881195  0.14442983  0.64300173     1.58100
O380        O  0.39286546  0.04151011  0.68867713    -0.86700
O381        O  0.46557141  0.08451514  0.68789375    -0.74000
C382        C  0.33178103  0.06281725  0.59878732     0.94100
O383        O  0.43113207  0.16160236  0.68117909    -0.73900
O384        O  0.35399551  0.09011451  0.59938221    -0.81400
Mg385      Mg  0.45954356  0.14659044  0.70147526     1.58000
C386        C  0.30826745  0.47531682  0.66228410     0.94000
O387        O  0.48909668  0.13786083  0.72558084    -0.79600
H388        H  0.41053988  0.01513793  0.68129079    -0.05000
C389        C  0.34026919  0.07419707  0.66327283     0.89000
O390        O  0.44728711  0.09792434  0.62615702    -0.74100
O391        O  0.41931742  0.10380571  0.70978089    -0.86900
O392        O  0.32100913  0.48759082  0.68024998    -0.79700
C393        C  0.36497898  0.01993277  0.74220839     0.94100
C394        C  0.48553263  0.11825690  0.73987331     0.94000
Mg395      Mg  0.35854562  0.03550159  0.63668906     1.58000
O396        O  0.32802909  0.04381333  0.61358997    -0.79600
O397        O  0.38792839  0.02144669  0.65652107    -0.73900
O398        O  0.39254076  0.04167804  0.74074405    -0.79700
O399        O  0.00320864  0.18998164  0.69211659    -0.81400
O400        O  0.42417763  0.13872269  0.59782713    -0.79700
C401        C  0.39746988  0.02544989  0.67593408     0.88400
O402        O  0.39783402  0.07832152  0.62889616    -0.86900
O403        O  0.35074754  0.05689260  0.66426224    -0.87000
O404        O  0.35194369  0.09729702  0.65096166    -0.74100
Mg405      Mg  0.42712266  0.06561266  0.71321062     1.58000
O406        O  0.34584821  0.01360416  0.72693847    -0.81400
H407        H  0.49637190  0.11184562  0.66536837    -0.05200
O408        O  0.42479002  0.14040396  0.64930331    -0.86700
H409        H  0.40872700  0.16824473  0.65640256    -0.05000
H410        H  0.41642442  0.05761739  0.61253981    -0.05200
C411        C  0.42116877  0.15731332  0.66185581     0.88400
C412        C  0.47705394  0.10740328  0.67542660     0.89000
C413        C  0.42013726  0.07722383  0.62189718     0.89000
H414        H  0.32124206  0.07003530  0.67355798    -0.05100
O415        O  0.36960361  0.08270091  0.71228468    -0.74200
Mg416      Mg  0.38992592  0.11606267  0.62526117     1.58000
H417        H  0.39945277  0.12356150  0.72580165    -0.05100
C418        C  0.01252021  0.20361173  0.67404819     0.94000
O419        O  0.47191391  0.16563813  0.61010208    -0.81400
C420        C  0.45217450  0.15868624  0.59514993     0.94100
O421        O  0.46301656  0.09112880  0.73908490    -0.81400
Mg422      Mg  0.34838937  0.03617313  0.69492397     1.58200
O423        O  0.49679968  0.19293623  0.65681705    -0.79700
O424        O  0.31738030  0.48989810  0.64458091    -0.81400
O425        O  0.35846314  0.30724666  0.66134645    -0.87000
C426        C  0.42796565  0.35888045  0.61908022     0.89000
Mg427      Mg  0.35319566  0.32518615  0.69156829     1.58100
O428        O  0.43486282  0.30266338  0.64782007    -0.86700
O429        O  0.36227402  0.26949273  0.64784510    -0.74000
C430        C  0.48815324  0.38716907  0.73819600     0.94100
O431        O  0.39015784  0.37973369  0.65301991    -0.73900
O432        O  0.46454160  0.38985680  0.73696426    -0.81400
Mg433      Mg  0.36425276  0.33517227  0.63347373     1.58000
C434        C  0.02124000  0.32959043  0.67479295     0.94000
O435        O  0.33654556  0.29490032  0.61077613    -0.79600
H436        H  0.41993079  0.25927159  0.65582885    -0.05000
C437        C  0.48188707  0.38901994  0.67281777     0.89000
O438        O  0.37628031  0.30295369  0.71026578    -0.74100
O439        O  0.40620239  0.33544986  0.62654136    -0.86900
O440        O  0.50598594  0.32423939  0.65730663    -0.79700
C441        C  0.46419983  0.31064973  0.59401879     0.94100
C442        C  0.34311871  0.28247077  0.59538872     0.94000
Mg443      Mg  0.46723179  0.33410479  0.69998010     1.58000
O444        O  0.49496748  0.37438617  0.72313530    -0.79600
O445        O  0.44081780  0.28953423  0.68035458    -0.73900
O446        O  0.43672779  0.30493897  0.59563715    -0.79700
O447        O  0.31923937  0.33338558  0.64075863    -0.81400
O448        O  0.39411757  0.36594730  0.73737988    -0.79700
C449        C  0.43150942  0.28286132  0.66091672     0.88400
O450        O  0.42538734  0.33404485  0.70710518    -0.86900
O451        O  0.47312235  0.36153914  0.67186523    -0.87000
O452        O  0.46888391  0.39920619  0.68509951    -0.74100
Mg453      Mg  0.40124055  0.29093202  0.62281800     1.58000
O454        O  0.48297985  0.32260520  0.60965615    -0.81400
H455        H  0.33052182  0.26406078  0.67027204    -0.05200
O456        O  0.39609197  0.36617827  0.68535797    -0.86700
H457        H  0.41038076  0.40959379  0.67785057    -0.05000
H458        H  0.40830339  0.29576255  0.72448544    -0.05200
C459        C  0.39917701  0.38611871  0.67251096     0.88400
C460        C  0.34941824  0.27971910  0.66021978     0.89000
C461        C  0.40375038  0.31052359  0.71452825     0.89000
H462        H  0.50069218  0.40468489  0.66270321    -0.05100
O463        O  0.45541863  0.36599840  0.62302807    -0.74200
Mg464      Mg  0.42995961  0.37850925  0.71027087     1.58000
H465        H  0.42356098  0.37388129  0.60928566    -0.05100
C466        C  0.30908515  0.33784119  0.65840623     0.94000
O467        O  0.34781709  0.34549892  0.72278278    -0.81400
C468        C  0.36624739  0.35931063  0.73825722     0.94100
O469        O  0.36685039  0.27997019  0.59605603    -0.81400
Mg470      Mg  0.47797297  0.34301321  0.64153147     1.58200
O471        O  0.32354715  0.34223914  0.67613374    -0.79700
O472        O  0.01209927  0.33559534  0.69233854    -0.81400
C473        C  0.30739972  0.41995789  0.84897062     0.03600
C474        C  0.30937341  0.39328752  0.84802883     0.03600
C475        C  0.31992150  0.38631571  0.82919749    -0.16900
C476        C  0.32865547  0.40545605  0.81102016     0.03600
C477        C  0.32626645  0.43219855  0.81181582     0.03600
C478        C  0.31543530  0.43893492  0.83083705    -0.16900
H479        H  0.31414987  0.45959832  0.83178243     0.05700
H480        H  0.32114547  0.36559480  0.82865977     0.05700
C481        C  0.00499105  0.26616942  0.47914497     0.03600
C482        C  0.00363282  0.23770658  0.47979006     0.03600
C483        C  0.99562625  0.22118702  0.49914090    -0.16900
C484        C  0.48911694  0.23242284  0.51792394     0.03600
C485        C  0.49082739  0.26114684  0.51745713     0.03600
C486        C  0.99862188  0.27756574  0.49794982    -0.16900
H487        H  0.00027859  0.29970306  0.49747641     0.05700
H488        H  0.99424273  0.19916157  0.49954419     0.05700
C489        C  0.26016838  0.26771639  0.48195304     0.03600
C490        C  0.23195852  0.24018003  0.48120488     0.03600
C491        C  0.22383722  0.21931798  0.49815272    -0.16900
C492        C  0.24315853  0.22606218  0.51609438     0.03600
C493        C  0.27083106  0.25422237  0.51725230     0.03600
C494        C  0.27936485  0.27469359  0.49997979    -0.16900
H495        H  0.30080380  0.29611906  0.50062381     0.05700
H496        H  0.20229957  0.19798611  0.49751454     0.05700
C497        C  0.23292272  0.48387293  0.48061438     0.03600
C498        C  0.26386325  0.49193130  0.48374050     0.03600
C499        C  0.27852431  0.50564650  0.50330361    -0.16900
C500        C  0.26287862  0.01118066  0.51992716     0.03600
C501        C  0.23192169  0.00282158  0.51690444     0.03600
C502        C  0.21725016  0.48912371  0.49740115    -0.16900
H503        H  0.19372087  0.48340080  0.49498580     0.05700
H504        H  0.30212903  0.51164300  0.50575628     0.05700
C505        C  0.99728114  0.02530906  0.99940784     0.03600
C506        C  0.02642142  0.02842005  0.00229467     0.03600
C507        C  0.02939157  0.50222017  0.00401638     0.03600
C508        C  0.00330493  0.47291028  0.00230454     0.03600
C509        C  0.47432140  0.46992557  0.99904699     0.03600
C510        C  0.47125906  0.49606385  0.99786893     0.03600
C511        C  0.33805198  0.19557188  0.33663864     0.03600
C512        C  0.36421339  0.19277352  0.33340879     0.03600
C513        C  0.36130371  0.16363512  0.33195906     0.03600
C514        C  0.33214687  0.13719027  0.33379687     0.03600
C515        C  0.30584390  0.13986792  0.33650592     0.03600
C516        C  0.30879371  0.16906961  0.33779217     0.03600
C517        C  0.13862273  0.33562512  0.66945752     0.03600
C518        C  0.16762171  0.36227660  0.66809367     0.03600
C519        C  0.19403865  0.35998333  0.66476094     0.03600
C520        C  0.19143558  0.33101765  0.66262624     0.03600
C521        C  0.16237818  0.30419426  0.66425712     0.03600
C522        C  0.13604342  0.30661146  0.66798156     0.03600
C523        C  0.06262092  0.32705843  0.65388662     0.25000
C524        C  0.05124852  0.33065503  0.67393552    -0.23200
C525        C  0.07019922  0.33804986  0.69241999     0.19900
C526        C  0.09941588  0.34139214  0.69083147     0.24900
C527        C  0.11018701  0.33738873  0.67084845    -0.23100
C528        C  0.09173667  0.33061419  0.65241608     0.19800
F529        F  0.10172891  0.32662984  0.63293219    -0.13100
F530        F  0.04574121  0.32017039  0.63546770    -0.15400
F531        F  0.11684146  0.34759196  0.70891409    -0.15400
F532        F  0.06055554  0.34194140  0.71206859    -0.13100
C533        C  0.26256984  0.32967994  0.67876488     0.25000
C534        C  0.27873755  0.33593643  0.65898878    -0.23200
C535        C  0.26449610  0.33802754  0.63994844     0.19900
C536        C  0.23541945  0.33509394  0.64087675     0.24900
C537        C  0.21985408  0.32940682  0.66071225    -0.23100
C538        C  0.23346315  0.32633933  0.67952438     0.19800
F539        F  0.21885295  0.32107130  0.69885849    -0.13100
F540        F  0.27461485  0.32627621  0.69748314    -0.15400
F541        F  0.22269829  0.33843897  0.62249589    -0.15400
F542        F  0.27884567  0.34345094  0.62050423    -0.13100
C543        C  0.36391093  0.39028737  0.79391934     0.25000
C544        C  0.33950123  0.39593747  0.79174509    -0.23200
C545        C  0.32334550  0.38866383  0.77209417     0.19900
C546        C  0.33138698  0.37587356  0.75495508     0.24900
C547        C  0.35580722  0.37004034  0.75713776    -0.23100
C548        C  0.37200636  0.37754735  0.77685837     0.19800
F549        F  0.39553604  0.37224418  0.77979929    -0.13100
F550        F  0.37984917  0.39695391  0.81277739    -0.15400
F551        F  0.31561352  0.36984818  0.73606502    -0.15400
F552        F  0.29915733  0.39306450  0.76969722    -0.13100
C553        C  0.33484619  0.26844867  0.55580162     0.25000
C554        C  0.32370086  0.27296874  0.57563837    -0.23200
C555        C  0.29541570  0.27219325  0.57572155     0.19900
C556        C  0.27906749  0.26751940  0.55653635     0.24900
C557        C  0.29014176  0.26280756  0.53693082    -0.23100
C558        C  0.31818385  0.26347754  0.53664256     0.19800
F559        F  0.32912897  0.25874262  0.51783341    -0.13100
F560        F  0.36223392  0.26962456  0.55472630    -0.15400
F561        F  0.25224380  0.26754673  0.55707889    -0.15400
F562        F  0.28353077  0.27622308  0.59433347    -0.13100
C563        C  0.49734102  0.29447967  0.57392060     0.25000
C564        C  0.47332013  0.30104640  0.57380152    -0.23200
C565        C  0.45577281  0.29496627  0.55472530     0.19900
C566        C  0.46160101  0.28211257  0.53656106     0.24900
C567        C  0.48495316  0.27482046  0.53695077    -0.23100
C568        C  0.50307904  0.28154102  0.55567624     0.19800
F569        F  0.02618441  0.27517671  0.55647214    -0.13100
F570        F  0.01419716  0.29878047  0.59216783    -0.15400
F571        F  0.44382924  0.27603618  0.51866625    -0.15400
F572        F  0.43262163  0.30115034  0.55363443    -0.13100
C573        C  0.27038670  0.42724682  0.68174617     0.25000
C574        C  0.28086671  0.44400665  0.66229651    -0.23200
C575        C  0.26310491  0.43163258  0.64333815     0.19900
C576        C  0.23522066  0.40412559  0.64409913     0.24900
C577        C  0.22463595  0.38818321  0.66363842    -0.23100
C578        C  0.24269995  0.39959610  0.68231376     0.19800
F579        F  0.23300364  0.38436180  0.70134580    -0.13100
F580        F  0.28639528  0.43789437  0.70048037    -0.15400
F581        F  0.21815400  0.39331759  0.62580914    -0.15400
F582        F  0.27201723  0.44655706  0.62413451    -0.13100
C583        C  0.08933976  0.26322144  0.65110077     0.25000
C584        C  0.10514220  0.27892188  0.66979695    -0.23200
C585        C  0.09015787  0.27051946  0.68990517     0.19900
C586        C  0.05973365  0.24685322  0.69131016     0.24900
C587        C  0.04354928  0.23115609  0.67253117    -0.23100
C588        C  0.05885941  0.23976624  0.65236731     0.19800
F589        F  0.04472024  0.22499551  0.63380962    -0.13100
F590        F  0.10329580  0.27110824  0.63147911    -0.15400
F591        F  0.04619273  0.23939814  0.71108317    -0.15400
F592        F  0.10505144  0.28544971  0.70821585    -0.13100
C593        C  0.31550518  0.46191359  0.78436826     0.25000
C594        C  0.33625323  0.45453325  0.79383689    -0.23200
C595        C  0.36703296  0.47054629  0.78742681     0.19900
C596        C  0.37676900  0.49297459  0.77139836     0.24900
C597        C  0.35564639  0.99972407  0.76140805    -0.23100
C598        C  0.32510182  0.48405972  0.76814401     0.19800
F599        F  0.30438565  0.49031290  0.75912891    -0.13100
F600        F  0.28578020  0.44735396  0.79069880    -0.15400
F601        F  0.40651330  0.00765237  0.76525114    -0.15400
F602        F  0.38780041  0.46479974  0.79695063    -0.13100
C603        C  0.27028610  0.00863448  0.55984447     0.25000
C604        C  0.27913652  0.02530063  0.54048690    -0.23200
C605        C  0.30354825  0.05544523  0.54078516     0.19900
C606        C  0.31948137  0.06853515  0.56004453     0.24900
C607        C  0.31129413  0.05157589  0.57946912    -0.23100
C608        C  0.28582282  0.02169562  0.57917074     0.19800
F609        F  0.27647387  0.00450634  0.59742264    -0.13100
F610        F  0.24737298  0.97913545  0.55986979    -0.15400
F611        F  0.34377947  0.09731561  0.55933220    -0.15400
F612        F  0.31228415  0.07205705  0.52226528    -0.13100
C613        C  0.49094178  0.18748838  0.56618567     0.25000
C614        C  0.46124566  0.17573779  0.57453264    -0.23200
C615        C  0.44056120  0.18217717  0.56373422     0.19900
C616        C  0.44972082  0.20073916  0.54540732     0.24900
C617        C  0.47957028  0.21302588  0.53745032    -0.23100
C618        C  0.99977729  0.20542809  0.54748476     0.19800
F619        F  0.02837223  0.21609780  0.53946381    -0.13100
F620        F  0.01099778  0.18072877  0.57568170    -0.15400
F621        F  0.42935106  0.20653645  0.53528864    -0.15400
F622        F  0.41174752  0.17145604  0.57135692    -0.13100
C623        C  0.03289169  0.39345655  0.76025259     0.25000
C624        C  0.00695138  0.39690345  0.75835478    -0.23200
C625        C  0.49713467  0.40615521  0.77685870     0.19900
C626        C  0.01269934  0.41154722  0.79658516     0.24900
C627        C  0.03835080  0.40798714  0.79823575    -0.23100
C628        C  0.04819775  0.39873752  0.78001124     0.19800
F629        F  0.07288505  0.39495540  0.78137792    -0.13100
F630        F  0.04343139  0.38461439  0.74310141    -0.15400
F631        F  0.50311320  0.42088439  0.81400952    -0.15400
F632        F  0.47222716  0.40962953  0.77608932    -0.13100
C633        C  0.04756347  0.16808959  0.78063420     0.25000
C634        C  0.04606541  0.14637000  0.79530518    -0.23200
C635        C  0.02520809  0.11543266  0.79160147     0.19900
C636        C  0.50590291  0.10620373  0.77350278     0.24900
C637        C  0.00738256  0.12783616  0.75846318    -0.23100
C638        C  0.02856335  0.15900977  0.76234410     0.19800
F639        F  0.03052433  0.18094609  0.74878753    -0.13100
F640        F  0.06745609  0.19816384  0.78405606    -0.15400
F641        F  0.48569188  0.07603513  0.77085703    -0.15400
F642        F  0.52325693  0.09411360  0.80577247    -0.13100
C643        C  0.16024059  0.23376484  0.64084987     0.25000
C644        C  0.15372076  0.21517971  0.65937375    -0.23200
C645        C  0.14894030  0.22599568  0.67928822     0.19900
C646        C  0.15209317  0.25493025  0.68080428     0.24900
C647        C  0.15939364  0.27355697  0.66247994    -0.23100
C648        C  0.16288709  0.26256159  0.64242870     0.19800
F649        F  0.16888783  0.27978091  0.62433360    -0.13100
F650        F  0.16486114  0.22456152  0.62124887    -0.15400
F651        F  0.14862401  0.26508168  0.70037038    -0.15400
F652        F  0.14186043  0.20894966  0.69756571    -0.13100
C653        C  0.16346387  0.40431080  0.65074084     0.25000
C654        C  0.17037756  0.39275325  0.66907966    -0.23200
C655        C  0.18109657  0.41072177  0.68788910     0.19900
C656        C  0.18466666  0.43991736  0.68838673     0.24900
C657        C  0.17705772  0.45137699  0.67013977    -0.23100
C658        C  0.16657191  0.43320542  0.65123769     0.19800
F659        F  0.15808153  0.44276518  0.63340263    -0.13100
F660        F  0.15348704  0.38744257  0.63231763    -0.15400
F661        F  0.19548032  0.45688439  0.70671261    -0.15400
F662        F  0.18775435  0.39981666  0.70585390    -0.13100
C663        C  0.09053684  0.49512220  0.77203088     0.25000
C664        C  0.11332198  0.49502563  0.75887803    -0.23200
C665        C  0.12814578  0.47946504  0.76629586     0.19900
C666        C  0.12017912  0.46424624  0.78620230     0.24900
C667        C  0.09712890  0.46400108  0.79900107    -0.23100
C668        C  0.08262404  0.47983269  0.79189144     0.19800
F669        F  0.06054203  0.48023786  0.80415962    -0.13100
F670        F  0.07559192  0.50973326  0.76560204    -0.15400
F671        F  0.13437541  0.44894675  0.79274250    -0.15400
F672        F  0.15088006  0.47949492  0.75456651    -0.13100
C673        C  0.12164110  0.17054809  0.77851253     0.25000
C674        C  0.10517700  0.14724237  0.79350659    -0.23200
C675        C  0.10340165  0.11900342  0.79088736     0.19900
C676        C  0.11765625  0.11389666  0.77331861     0.24900
C677        C  0.13410038  0.13714103  0.75797749    -0.23100
C678        C  0.13591821  0.16559211  0.76084853     0.19800
F679        F  0.15170881  0.18878955  0.74673197    -0.13100
F680        F  0.12468414  0.19846186  0.78139149    -0.15400
F681        F  0.11486996  0.08596341  0.77127754    -0.15400
F682        F  0.08804536  0.09642738  0.80552911    -0.13100
C683        C  0.22347348  0.04048610  0.53719587     0.25000
C684        C  0.21544239  0.01009845  0.53362639    -0.23200
C685        C  0.19419417  0.48725422  0.54751037     0.19900
C686        C  0.18263009  0.99523799  0.56547986     0.24900
C687        C  0.19191542  0.02601299  0.56985476    -0.23100
C688        C  0.21176124  0.04842155  0.55496404     0.19800
F689        F  0.22144221  0.07840359  0.55814036    -0.13100
F690        F  0.24382224  0.06274669  0.52390702    -0.15400
F691        F  0.16349764  0.47262121  0.57922290    -0.15400
F692        F  0.18603022  0.45766764  0.54422238    -0.13100
C693        C  0.24464550  0.17637216  0.56079761     0.25000
C694        C  0.22070808  0.17358817  0.57401354    -0.23200
C695        C  0.20259753  0.18577353  0.56689011     0.19900
C696        C  0.20870869  0.20097811  0.54719070     0.24900
C697        C  0.23327766  0.20475554  0.53446100    -0.23100
C698        C  0.25083493  0.19182381  0.54110097     0.19800
F699        F  0.27435048  0.19477847  0.52869842    -0.13100
F700        F  0.26237985  0.16469111  0.56712263    -0.15400
F701        F  0.19147599  0.21327034  0.54096720    -0.15400
F702        F  0.17847293  0.18243315  0.57874831    -0.13100
C703        C  0.48701082  0.08956632  0.97751150     0.25000
C704        C  0.48763522  0.10519632  0.99664367    -0.23200
C705        C  0.99050777  0.09346513  0.01671996     0.19900
C706        C  0.99368350  0.06765239  0.01750600     0.24900
C707        C  0.49381704  0.05275282  0.99840157    -0.23100
C708        C  0.48997415  0.06358273  0.97844271     0.19800
F709        F  0.48969592  0.04927308  0.95977039    -0.13100
F710        F  0.48413310  0.09965548  0.95779851    -0.15400
F711        F  0.99683088  0.05722734  0.03700914    -0.15400
F712        F  0.99128307  0.10740802  0.03570826    -0.13100
C713        C  0.50512411  0.40372985  0.02394253     0.25000
C714        C  0.01103376  0.39180452  0.00499764    -0.23200
C715        C  0.01540720  0.40771959  0.98533129     0.19900
C716        C  0.01305354  0.43404526  0.98458261     0.24900
C717        C  0.00648176  0.44525899  0.00336309    -0.23100
C718        C  0.50294589  0.43017217  0.02307737     0.19800
F719        F  0.49687475  0.44082250  0.04149705    -0.13100
F720        F  0.50044389  0.38938898  0.04328760    -0.15400
F721        F  0.01666962  0.44838033  0.96535688    -0.15400
F722        F  0.02130987  0.39756192  0.96659966    -0.13100
C723        C  0.01508664  0.35189941  0.89963452     0.25000
C724        C  0.03166974  0.33772684  0.90604416    -0.23200
C725        C  0.05948419  0.34601890  0.89540217     0.19900
C726        C  0.07077017  0.36844613  0.87923995     0.24900
C727        C  0.05447147  0.38297492  0.87317727    -0.23100
C728        C  0.02622659  0.37403943  0.88326596     0.19800
F729        F  0.00960462  0.38717418  0.87747845    -0.13100
F730        F  0.48798795  0.34426730  0.90921091    -0.15400
F731        F  0.09749809  0.37566593  0.86926953    -0.15400
F732        F  0.07648680  0.33330293  0.90120840    -0.13100
C733        C  0.07692521  0.22742625  0.89373551     0.25000
C734        C  0.05619693  0.20741498  0.90935972    -0.23200
C735        C  0.04311503  0.17566723  0.90587418     0.19900
C736        C  0.05007054  0.16446539  0.88725201     0.24900
C737        C  0.07045283  0.18450473  0.87176762    -0.23100
C738        C  0.08408044  0.21603164  0.87523986     0.19800
F739        F  0.10408410  0.23581444  0.86049911    -0.13100
F740        F  0.09017940  0.25805776  0.89620119    -0.15400
F741        F  0.03658910  0.13389879  0.88421018    -0.15400
F742        F  0.02263659  0.15517722  0.92006763    -0.13100
C743        C  0.09439811  0.10073269  0.02349749     0.25000
C744        C  0.10765010  0.11682067  0.00414790    -0.23200
C745        C  0.09259972  0.10407604  0.98432142     0.19900
C746        C  0.06605961  0.07550241  0.98383487     0.24900
C747        C  0.05389208  0.05918609  0.00303478    -0.23100
C748        C  0.06780185  0.07217797  0.02287384     0.19800
F749        F  0.05576057  0.05698254  0.04165714    -0.13100
F750        F  0.10749732  0.11210691  0.04305704    -0.15400
F751        F  0.05263170  0.06332743  0.96450100    -0.15400
F752        F  0.10389945  0.11870910  0.96523906    -0.13100
C753        C  0.43746596  0.42482690  0.97715679     0.25000
C754        C  0.44699078  0.43929267  0.99733932    -0.23200
C755        C  0.43046750  0.42470668  0.01597629     0.19900
C756        C  0.40415848  0.39615138  0.01449483     0.24900
C757        C  0.39354594  0.38176177  0.99411523    -0.23100
C758        C  0.41085726  0.39634817  0.97548174     0.19800
F759        F  0.40187612  0.38341252  0.95558854    -0.13100
F760        F  0.45369635  0.43860925  0.95902427    -0.15400
F761        F  0.38861399  0.38328941  0.03305907    -0.15400
F762        F  0.43953992  0.43847592  0.03562410    -0.13100
C763        C  0.31580279  0.35441257  0.89811645     0.25000
C764        C  0.28535119  0.33910818  0.90564485    -0.23200
C765        C  0.26266044  0.34048727  0.89332701     0.19900
C766        C  0.27030507  0.35705827  0.87407385     0.24900
C767        C  0.30072901  0.37271010  0.86687438    -0.23100
C768        C  0.32335031  0.37096677  0.87883173     0.19800
F769        F  0.35289881  0.38597792  0.87207838    -0.13100
F770        F  0.33818685  0.35274140  0.90907849    -0.15400
F771        F  0.24802895  0.35805764  0.86248025    -0.15400
F772        F  0.23310302  0.32611242  0.90003361    -0.13100
C773        C  0.17334021  0.20984992  0.88690222     0.25000
C774        C  0.16553860  0.18957391  0.90452774    -0.23200
C775        C  0.13728877  0.16191459  0.90398769     0.19900
C776        C  0.11705000  0.15539816  0.88673453     0.24900
C777        C  0.12452849  0.17635567  0.86987230    -0.23100
C778        C  0.15297045  0.20319419  0.86977354     0.19800
F779        F  0.16084720  0.22312870  0.85308065    -0.13100
F780        F  0.20036224  0.23652410  0.88633755    -0.15400
F781        F  0.09022190  0.12851941  0.88639565    -0.15400
F782        F  0.12874031  0.14141411  0.92034998    -0.13100
C783        C  0.40065569  0.49836343  0.01419025     0.25000
C784        C  0.38629121  0.99592951  0.99401800    -0.23200
C785        C  0.39931700  0.99130376  0.97518163     0.19900
C786        C  0.42633337  0.99006488  0.97648094     0.24900
C787        C  0.44056606  0.99306409  0.99655517    -0.23100
C788        C  0.42737945  0.49684711  0.01536122     0.19800
F789        F  0.44074740  0.49953358  0.03494098    -0.13100
F790        F  0.38879220  0.50185414  0.03298560    -0.15400
F791        F  0.43905908  0.98673129  0.95807703    -0.15400
F792        F  0.38619642  0.98824792  0.95546469    -0.13100
C793        C  0.07633045  0.00765216  0.98679887     0.25000
C794        C  0.05990970  0.50496548  0.00574868    -0.23200
C795        C  0.07085083  0.50127552  0.02573734     0.19900
C796        C  0.09781982  0.49990615  0.02675461     0.24900
C797        C  0.11406656  0.50184108  0.00767635    -0.23100
C798        C  0.10310193  0.50622281  0.98771216     0.19800
F799        F  0.11806556  0.00877175  0.96884772    -0.13100
F800        F  0.06597341  0.01106734  0.96731482    -0.15400
F801        F  0.10761912  0.49611401  0.04634203    -0.15400
F802        F  0.05505379  0.49841213  0.04420361    -0.13100
C803        C  0.10593784  0.44886249  0.89450134     0.25000
C804        C  0.11536414  0.44312996  0.87449872    -0.23200
C805        C  0.14585828  0.44993357  0.87215335     0.19900
C806        C  0.16639942  0.46182764  0.88952089     0.24900
C807        C  0.15699348  0.46750622  0.90960784    -0.23100
C808        C  0.12649271  0.46090774  0.91186951     0.19800
F809        F  0.11618762  0.46519370  0.93112819    -0.13100
F810        F  0.07697970  0.44346292  0.89710926    -0.15400
F811        F  0.19558839  0.46802180  0.88659553    -0.15400
F812        F  0.15573282  0.44488558  0.85296445    -0.13100
C813        C  0.26858595  0.42492809  0.87082814     0.25000
C814        C  0.29775830  0.42832064  0.86923158    -0.23200
C815        C  0.31618738  0.43576082  0.88777330     0.19900
C816        C  0.30531784  0.43890697  0.90783722     0.24900
C817        C  0.27577981  0.43513794  0.90972466    -0.23100
C818        C  0.25755226  0.42810396  0.89086341     0.19800
F819        F  0.22910115  0.42454074  0.89162214    -0.13100
F820        F  0.25039133  0.41755046  0.85305350    -0.15400
F821        F  0.32405590  0.44608664  0.92529018    -0.15400
F822        F  0.34475139  0.43969268  0.88642832    -0.13100
C823        C  0.43493669  0.32923603  0.10656302     0.25000
C824        C  0.42709785  0.31404978  0.12656756    -0.23200
C825        C  0.42558126  0.28570773  0.12814903     0.19900
C826        C  0.43204383  0.27287624  0.11016373     0.24900
C827        C  0.44029502  0.28819735  0.09006871    -0.23100
C828        C  0.44114343  0.31640961  0.08850530     0.19800
F829        F  0.44848972  0.33204699  0.06955838    -0.13100
F830        F  0.43759546  0.35708680  0.10463844    -0.15400
F831        F  0.43114855  0.24588829  0.11272992    -0.15400
F832        F  0.41786575  0.27041306  0.14723521    -0.13100
C833        C  0.35449784  0.33824552  0.09620130     0.25000
C834        C  0.33272750  0.30749179  0.09203046    -0.23200
C835        C  0.33058044  0.28491869  0.10649894     0.19900
C836        C  0.35088547  0.29276770  0.12378155     0.24900
C837        C  0.37329165  0.32316236  0.12718539    -0.23100
C838        C  0.37435843  0.34598661  0.11384229     0.19800
F839        F  0.39514970  0.37572214  0.11766550    -0.13100
F840        F  0.35696492  0.36079973  0.08308270    -0.15400
F841        F  0.34873532  0.27065789  0.13724827    -0.15400
F842        F  0.30963890  0.25499308  0.10358830    -0.13100
C843        C  0.31866165  0.05972811  0.35062323     0.25000
C844        C  0.32492883  0.04905068  0.33124915    -0.23200
C845        C  0.33183659  0.06709168  0.31240504     0.19900
C846        C  0.33380636  0.09551871  0.31322870     0.24900
C847        C  0.32902061  0.10655673  0.33278873    -0.23100
C848        C  0.32086419  0.08827157  0.35135843     0.19800
F849        F  0.31579602  0.09845998  0.37038977    -0.13100
F850        F  0.31099848  0.04292280  0.36904679    -0.15400
F851        F  0.34060856  0.11244071  0.29490926    -0.15400
F852        F  0.33776247  0.05786680  0.29325797    -0.13100
C853        C  0.35350260  0.27265678  0.35731139     0.25000
C854        C  0.34623758  0.28433449  0.33898027    -0.23200
C855        C  0.33695459  0.26662216  0.31981172     0.19900
C856        C  0.33441410  0.23792975  0.31918533     0.24900
C857        C  0.34120777  0.22627753  0.33752989    -0.23100
C858        C  0.35116620  0.24394201  0.35651721     0.19800
F859        F  0.35804390  0.23308033  0.37441863    -0.13100
F860        F  0.36270090  0.28888967  0.37604286    -0.15400
F861        F  0.32496321  0.22125756  0.30064765    -0.15400
F862        F  0.32904829  0.27638793  0.30180501    -0.13100
C863        C  0.31930480  0.50236979  0.43854248     0.25000
C864        C  0.30858028  0.47199526  0.43208490    -0.23200
C865        C  0.28479832  0.44831604  0.44415562     0.19900
C866        C  0.27105807  0.45489928  0.46135240     0.24900
C867        C  0.28081682  0.48517781  0.46705232    -0.23100
C868        C  0.30577092  0.00892655  0.45601672     0.19800
F869        F  0.31588546  0.03839595  0.46150311    -0.13100
F870        F  0.34225401  0.02587742  0.42747469    -0.15400
F871        F  0.24756079  0.43161243  0.47213488    -0.15400
F872        F  0.27338726  0.41865690  0.43855127    -0.13100
C873        C  0.28471491  0.29764550  0.42557285     0.25000
C874        C  0.28222367  0.32413804  0.42582590    -0.23200
C875        C  0.27346530  0.33242253  0.44527323     0.19900
C876        C  0.26758421  0.31475754  0.46389543     0.24900
C877        C  0.27010265  0.28854258  0.46336334    -0.23100
C878        C  0.27888654  0.28021600  0.44421788     0.19800
F879        F  0.28158761  0.25492526  0.44359130    -0.13100
F880        F  0.29299887  0.28852159  0.40736866    -0.15400
F881        F  0.25883917  0.32286615  0.48236044    -0.15400
F882        F  0.27102425  0.35782496  0.44649222    -0.13100
C883        C  0.36816083  0.33784755  0.23890731     0.25000
C884        C  0.36475758  0.36372516  0.24042227    -0.23200
C885        C  0.37409771  0.38408655  0.22273146     0.19900
C886        C  0.38728795  0.37914807  0.20442502     0.24900
C887        C  0.39143682  0.35388249  0.20334206    -0.23100
C888        C  0.38124931  0.33296763  0.22049457     0.19800
F889        F  0.38347801  0.30745248  0.21924139    -0.13100
F890        F  0.35966043  0.31760504  0.25544046    -0.15400
F891        F  0.39631459  0.39923424  0.18775378    -0.15400
F892        F  0.37087086  0.40907935  0.22314118    -0.13100
C893        C  0.23344849  0.06945595  0.31741652     0.25000
C894        C  0.21651816  0.05856347  0.33679134    -0.23200
C895        C  0.22874265  0.07562456  0.35596913     0.19900
C896        C  0.25755167  0.10217168  0.35587599     0.24900
C897        C  0.27485391  0.11196123  0.33673302    -0.23100
C898        C  0.26238094  0.09559526  0.31749985     0.19800
F899        F  0.27834841  0.10499875  0.29868790    -0.13100
F900        F  0.22269051  0.05421747  0.29841006    -0.15400
F901        F  0.26893424  0.11793925  0.37460810    -0.15400
F902        F  0.21301563  0.06649038  0.37489106    -0.13100
C903        C  0.43419550  0.25944372  0.30824536     0.25000
C904        C  0.45472354  0.27063573  0.32589965    -0.23200
C905        C  0.44497074  0.25545424  0.34604304     0.19900
C906        C  0.41543012  0.23060432  0.34851983     0.24900
C907        C  0.39494332  0.22033806  0.33107421    -0.23100
C908        C  0.40454606  0.23474762  0.31091791     0.19800
F909        F  0.38519114  0.22461455  0.29371923    -0.13100
F910        F  0.44242866  0.27270379  0.28844723    -0.15400
F911        F  0.40669344  0.21658285  0.36805504    -0.15400
F912        F  0.46371744  0.26485148  0.36359303    -0.13100
C913        C  0.00126560  0.30675510  0.42889478     0.25000
C914        C  0.03243537  0.32463772  0.42334756    -0.23200
C915        C  0.05435640  0.32255346  0.43629997     0.19900
C916        C  0.04528285  0.30300810  0.45413379     0.24900
C917        C  0.01427093  0.28525816  0.45947232    -0.23100
C918        C  0.49226235  0.28709906  0.44673907     0.19800
F919        F  0.46213715  0.27016473  0.45180100    -0.13100
F920        F  0.47925052  0.30733158  0.41663553    -0.15400
F921        F  0.06684880  0.30162940  0.46637992    -0.15400
F922        F  0.08460925  0.33874461  0.43142632    -0.13100
C923        C  0.18995383  0.44250448  0.45912018     0.25000
C924        C  0.21676696  0.47110699  0.45970203    -0.23200
C925        C  0.22724709  0.48803461  0.44046140     0.19900
C926        C  0.21082346  0.47690547  0.42110227     0.24900
C927        C  0.18317906  0.44873266  0.42061371    -0.23100
C928        C  0.17336304  0.43136159  0.43983978     0.19800
F929        F  0.14680104  0.40423946  0.44040208    -0.13100
F930        F  0.17944717  0.42556907  0.47742684    -0.15400
F931        F  0.22161021  0.49424006  0.40299262    -0.15400
F932        F  0.25261975  0.51612588  0.44062178    -0.13100
C933        C  0.47265121  0.34527882  0.23384493     0.25000
C934        C  0.48924563  0.37649263  0.23959101    -0.23200
C935        C  0.48680321  0.39759192  0.22614393     0.19900
C936        C  0.46793220  0.38767719  0.20775805     0.24900
C937        C  0.45156168  0.35661536  0.20218428    -0.23100
C938        C  0.45433055  0.33558277  0.21522438     0.19800
F939        F  0.43891972  0.30550007  0.21004709    -0.13100
F940        F  0.97477754  0.32410303  0.24586972    -0.15400
F941        F  0.46592580  0.40849138  0.19515871    -0.15400
F942        F  0.50255603  0.42783633  0.23078200    -0.13100
C943        C  0.44261887  0.15370892  0.10665101     0.25000
C944        C  0.46928806  0.16048783  0.09494779    -0.23200
C945        C  0.48511437  0.14519163  0.10058672     0.19900
C946        C  0.47413929  0.12326017  0.11709632     0.24900
C947        C  0.44681094  0.11567767  0.12804082    -0.23100
C948        C  0.43149446  0.13148750  0.12291030     0.19800
F949        F  0.40589670  0.12571293  0.13392766    -0.13100
F950        F  0.42649741  0.16772245  0.10184461    -0.15400
F951        F  0.48997940  0.10904164  0.12220045    -0.15400
F952        F  0.01123725  0.15143034  0.09011692    -0.13100
C953        C  0.37427289  0.03706206  0.09021864     0.25000
C954        C  0.34418708  0.03188852  0.09190328    -0.23200
C955        C  0.33510079  0.03911892  0.11158394     0.19900
C956        C  0.35547902  0.05103950  0.12906055     0.24900
C957        C  0.38551687  0.05637329  0.12724033    -0.23100
C958        C  0.39465074  0.04915186  0.10768351     0.19800
F959        F  0.42315969  0.05313245  0.10563289    -0.13100
F960        F  0.38440712  0.03127332  0.07143990    -0.15400
F961        F  0.34591007  0.05759814  0.14781343    -0.15400
F962        F  0.30639112  0.03450870  0.11402224    -0.13100
C963        C  0.41348880  0.01643780  0.20763737     0.25000
C964        C  0.40404365  0.03752519  0.20333952    -0.23200
C965        C  0.38826928  0.04383263  0.21933226     0.19900
C966        C  0.38237811  0.02954019  0.23955806     0.24900
C967        C  0.39199144  0.00836985  0.24409552    -0.23100
C968        C  0.40767329  0.00205810  0.22776210     0.19800
F969        F  0.41777119  0.48225350  0.23119268    -0.13100
F970        F  0.42890119  0.01017743  0.19236830    -0.15400
F971        F  0.36689021  0.03621310  0.25450561    -0.15400
F972        F  0.37913396  0.06437756  0.21548414    -0.13100
C973        C  0.24101934  0.16523454  0.10578202     0.25000
C974        C  0.21827773  0.15970548  0.09025102    -0.23200
C975        C  0.18740148  0.13913779  0.09547739     0.19900
C976        C  0.17961263  0.12471604  0.11564851     0.24900
C977        C  0.20236849  0.13049156  0.13094804    -0.23100
C978        C  0.23303079  0.15097613  0.12596667     0.19800
F979        F  0.25532291  0.15693124  0.14065964    -0.13100
F980        F  0.27109160  0.18450639  0.10156977    -0.15400
F981        F  0.14982638  0.10467825  0.12016071    -0.15400
F982        F  0.16455609  0.13332418  0.08131579    -0.13100
C983        C  0.24823191  0.08248028  0.10726234     0.25000
C984        C  0.22608582  0.06492303  0.09146127    -0.23200
C985        C  0.19489063  0.05327132  0.09638187     0.19900
C986        C  0.18618764  0.05925772  0.11637819     0.24900
C987        C  0.20826070  0.07692500  0.13186731    -0.23100
C988        C  0.23930782  0.08830242  0.12734822     0.19800
F989        F  0.26094987  0.10535080  0.14228683    -0.13100
F990        F  0.27849863  0.09405108  0.10333163    -0.15400
F991        F  0.15604893  0.04799759  0.12063546    -0.15400
F992        F  0.17254394  0.03518414  0.08217734    -0.13100
C993        C  0.18647876  0.04784250  0.21845304     0.25000
C994        C  0.16596107  0.05256330  0.20607250    -0.23200
C995        C  0.13443415  0.03392409  0.20958360     0.19900
C996        C  0.12353441  0.01116521  0.22546280     0.24900
C997        C  0.14395559  0.50666778  0.23834994    -0.23100
C998        C  0.17573249  0.02540145  0.23452857     0.19800
F999        F  0.19634404  0.52188985  0.24633508    -0.13100
F1000       F  0.21705868  0.06526192  0.21507735    -0.15400
F1001       F  0.09287907  0.99414115  0.22862914    -0.15400
F1002       F  0.11413861  0.03744520  0.19733110    -0.13100
C1003       C  0.26137978  0.16201682  0.32036474     0.25000
C1004       C  0.28059199  0.17119763  0.33852617    -0.23200
C1005       C  0.27099386  0.17851472  0.35780150     0.19900
C1006       C  0.24206644  0.17582842  0.35903468     0.24900
C1007       C  0.22203073  0.16513144  0.34105343    -0.23100
C1008       C  0.23222841  0.15829301  0.32169996     0.19800
F1009       F  0.21401817  0.14777274  0.30392513    -0.13100
F1010       F  0.27066180  0.15580864  0.30135685    -0.15400
F1011       F  0.23391254  0.18393567  0.37776361    -0.15400
F1012       F  0.28932786  0.18755031  0.37555283    -0.13100
C1013       C  0.43450679  0.17083444  0.30919180     0.25000
C1014       C  0.44731695  0.16562434  0.32781111    -0.23200
C1015       C  0.43018404  0.15725809  0.34722081     0.19900
C1016       C  0.40163704  0.15523189  0.34815557     0.24900
C1017       C  0.38940571  0.16133359  0.32979573    -0.23100
C1018       C  0.40573688  0.16858013  0.31018764     0.19800
F1019       F  0.39398888  0.17396187  0.29208923    -0.13100
F1020       F  0.45003567  0.17875715  0.29015889    -0.15400
F1021       F  0.38622641  0.14812805  0.36723641    -0.15400
F1022       F  0.44076633  0.15052117  0.36536095    -0.13100
C1023       C  0.04629451  0.21123512  0.44392752     0.25000
C1024       C  0.02561049  0.19690735  0.42661532    -0.23200
C1025       C  0.99728054  0.19616696  0.42714698     0.19900
C1026       C  0.99036181  0.21007809  0.44415955     0.24900
C1027       C  0.01144151  0.22483670  0.46095264    -0.23100
C1028       C  0.03919002  0.22494766  0.46084704     0.19800
F1029       F  0.05961065  0.23863322  0.47719015    -0.13100
F1030       F  0.07373858  0.21247310  0.44448058    -0.15400
F1031       F  0.46269640  0.20837370  0.44454261    -0.15400
F1032       F  0.47619853  0.18201646  0.41125025    -0.13100
C1033       C  0.17849877  0.24427927  0.44017378     0.25000
C1034       C  0.17720049  0.22382358  0.42421343    -0.23200
C1035       C  0.19285935  0.20772969  0.42780069     0.19900
C1036       C  0.20948720  0.21211039  0.44681468     0.24900
C1037       C  0.21123735  0.23293664  0.46245067    -0.23100
C1038       C  0.19555459  0.24890538  0.45910802     0.19800
F1039       F  0.19695161  0.26909533  0.47417289    -0.13100
F1040       F  0.16372971  0.26014219  0.43730328    -0.15400
F1041       F  0.22453285  0.19651917  0.44976833    -0.15400
F1042       F  0.19141349  0.18700816  0.41317548    -0.13100
C1043       C  0.45808120  0.10731088  0.21912246     0.25000
C1044       C  0.46353388  0.09145276  0.20279829    -0.23200
C1045       C  0.48408849  0.08105886  0.20652875     0.19900
C1046       C  0.99908488  0.08651383  0.22648572     0.24900
C1047       C  0.49355417  0.10229291  0.24311299    -0.23100
C1048       C  0.47268696  0.11252344  0.23912350     0.19800
F1049       F  0.46687434  0.12836276  0.25430208    -0.13100
F1050       F  0.43819939  0.11747296  0.21570974    -0.15400
F1051       F  0.01904593  0.07632938  0.22941737    -0.15400
F1052       F  0.98927609  0.06534573  0.19092222    -0.13100
C1053       C  0.12801360  0.12484954  0.22275029     0.25000
C1054       C  0.14537203  0.13385819  0.24203757    -0.23200
C1055       C  0.17190575  0.13134142  0.24313435     0.19900
C1056       C  0.18061599  0.11990908  0.22559428     0.24900
C1057       C  0.16314827  0.11074955  0.20653745    -0.23100
C1058       C  0.13697320  0.11363114  0.20515096     0.19800
F1059       F  0.11992645  0.10532139  0.18675606    -0.13100
F1060       F  0.10237416  0.12692841  0.22083457    -0.15400
F1061       F  0.20660906  0.11840626  0.22705965    -0.15400
F1062       F  0.18914788  0.13915598  0.26140189    -0.13100
O1063       O  0.02721242  0.63661784  0.32937687    -0.87000
C1064       C  0.09515630  0.68882860  0.28621647     0.89000
Mg1065     Mg  0.02197913  0.65408163  0.35988179     1.58100
O1066       O  0.10513480  0.63415359  0.31500387    -0.86700
O1067       O  0.03230321  0.59957449  0.31589298    -0.74000
C1068       C  0.15788969  0.71702651  0.40456104     0.94100
O1069       O  0.05825347  0.70884667  0.32130983    -0.73900
O1070       O  0.13354458  0.71848957  0.40537387    -0.81400
Mg1071     Mg  0.03230034  0.66438332  0.30156556     1.58000
C1072       C  0.19210612  0.66415287  0.34134530     0.94000
O1073       O  0.00492597  0.62404888  0.27855194    -0.79600
H1074       H  0.09178779  0.59098198  0.32266635    -0.05000
C1075       C  0.14984823  0.72069512  0.34018434     0.89000
O1076       O  0.04600648  0.63229966  0.37793229    -0.74100
O1077       O  0.07428040  0.66517887  0.29407585    -0.86900
O1078       O  0.17795097  0.66045929  0.32356962    -0.79700
C1079       C  0.13428742  0.64288992  0.26148506     0.94100
C1080       C  0.01196829  0.61173516  0.26330156     0.94000
Mg1081     Mg  0.13709228  0.66603525  0.36653840     1.58000
O1082       O  0.16515737  0.70797084  0.38757768    -0.79600
O1083       O  0.11160905  0.62107285  0.34742295    -0.73900
O1084       O  0.10607754  0.63479759  0.26295239    -0.79700
O1085       O  0.48734921  0.66269786  0.30936335    -0.81400
O1086       O  0.06289383  0.69270304  0.40578447    -0.79700
C1087       C  0.10260112  0.61447098  0.32792863     0.88400
O1088       O  0.09477448  0.66429808  0.37407927    -0.86900
O1089       O  0.14124202  0.69327809  0.33874314    -0.87000
O1090       O  0.13717995  0.73041247  0.35320784    -0.74100
Mg1091     Mg  0.07075320  0.62121400  0.29049141     1.58000
O1092       O  0.15284530  0.65685142  0.27687984    -0.81400
H1093       H  0.00042951  0.59329900  0.33845788    -0.05200
O1094       O  0.06440043  0.69581407  0.35382864    -0.86700
H1095       H  0.07861951  0.73908377  0.34591601    -0.05000
H1096       H  0.07910128  0.62599932  0.39129353    -0.05200
C1097       C  0.06738940  0.71552367  0.34077639     0.88400
C1098       C  0.01897847  0.60926486  0.32829368     0.89000
C1099       C  0.07375956  0.64046066  0.38165244     0.89000
H1100       H  0.16831627  0.73671872  0.32998355    -0.05100
O1101       O  0.12292448  0.69730229  0.29005915    -0.74200
Mg1102     Mg  0.09861927  0.70801368  0.37861634     1.58000
H1103       H  0.08966093  0.70292562  0.27627727    -0.05100
C1104       C  0.47733552  0.66696179  0.32716781     0.94000
O1105       O  0.01657777  0.67361987  0.39156144    -0.81400
C1106       C  0.03521744  0.68651276  0.40710380     0.94100
O1107       O  0.03578193  0.60940110  0.26425800    -0.81400
Mg1108     Mg  0.14709222  0.67610662  0.30845938     1.58200
O1109       O  0.99152243  0.67047687  0.34490785    -0.79700
O1110       O  0.18200491  0.66854652  0.35899273    -0.81400
C1111       C  0.17373680  0.60067955  0.18751138     0.03600
C1112       C  0.17717086  0.57458186  0.18793330     0.03600
C1113       C  0.18995397  0.56804304  0.16996162    -0.16900
C1114       C  0.19872046  0.58652392  0.15155974     0.03600
C1115       C  0.19474892  0.61202790  0.15093615     0.03600
C1116       C  0.18246054  0.61901744  0.16887657    -0.16900
H1117       H  0.17989254  0.63896799  0.16838194     0.05700
H1118       H  0.19202359  0.54778951  0.16996823     0.05700
C1119       C  0.41473454  0.55644001  0.18359295     0.03600
C1120       C  0.44414221  0.58234044  0.18318207     0.03600
C1121       C  0.45435395  0.60054913  0.16462625    -0.16900
C1122       C  0.43553743  0.59343467  0.14624557     0.03600
C1123       C  0.40602273  0.56680132  0.14644733     0.03600
C1124       C  0.39606391  0.54869184  0.16524244    -0.16900
H1125       H  0.37370145  0.52829016  0.16555551     0.05700
H1126       H  0.47666842  0.62102440  0.16480417     0.05700
O1127       O  0.14432131  0.94685637  0.33556141    -0.87000
C1128       C  0.07486786  0.92691685  0.37767286     0.89000
Mg1129     Mg  0.14728086  0.96774890  0.30482626     1.58100
O1130       O  0.07020610  0.86417726  0.34957433    -0.86700
O1131       O  0.14283173  0.90624537  0.34860602    -0.74000
C1132       C  0.01058290  0.88700232  0.25856067     0.94100
O1133       O  0.10805212  0.98291040  0.34283468    -0.73900
O1134       O  0.03317945  0.91418460  0.25915690    -0.81400
Mg1135     Mg  0.13696029  0.96856545  0.36318718     1.58000
C1136       C  0.48398426  0.80031947  0.32442258     0.94000
O1137       O  0.16680185  0.95966892  0.38719060    -0.79600
H1138       H  0.08644429  0.83654259  0.34229658    -0.05000
C1139       C  0.01867372  0.89798630  0.32330337     0.89000
O1140       O  0.12589221  0.92142289  0.28727283    -0.74100
O1141       O  0.09727496  0.92582371  0.37087548    -0.86900
O1142       O  0.99901293  0.81205093  0.34175335    -0.79700
C1143       C  0.04206868  0.84370060  0.40340337     0.94100
C1144       C  0.16281358  0.93955412  0.40121546     0.94000
Mg1145     Mg  0.03592357  0.85856255  0.29729451     1.58000
O1146       O  0.00656388  0.86767599  0.27323701    -0.79600
O1147       O  0.06429594  0.84352942  0.31752289    -0.73900
O1148       O  0.06997351  0.86434590  0.40136300    -0.79700
O1149       O  0.17907774  0.51360516  0.35509108    -0.81400
O1150       O  0.10476474  0.96467739  0.25817651    -0.79700
C1151       C  0.07400443  0.84750276  0.33690178     0.88400
O1152       O  0.07622819  0.90128061  0.28898551    -0.86900
O1153       O  0.02935231  0.88091481  0.32477322    -0.87000
O1154       O  0.03029624  0.92071080  0.31065037    -0.74100
Mg1155     Mg  0.10457042  0.88751463  0.37398515     1.58000
O1156       O  0.02279018  0.83757647  0.38825129    -0.81400
H1157       H  0.17391043  0.93380159  0.32632301    -0.05200
O1158       O  0.10303178  0.96329172  0.31044911    -0.86700
H1159       H  0.08566083  0.98981386  0.31818660    -0.05000
H1160       H  0.09583451  0.88109642  0.27320118    -0.05200
C1161       C  0.09854247  0.97923502  0.32339792     0.88400
C1162       C  0.15475274  0.92952771  0.33650440     0.89000
C1163       C  0.09896041  0.90048579  0.28257151     0.89000
H1164       H  0.99941401  0.89385206  0.33331420    -0.05100
O1165       O  0.04775954  0.90634647  0.37311042    -0.74200
Mg1166     Mg  0.06905546  0.93981062  0.28544290     1.58000
H1167       H  0.07846347  0.94639067  0.38714654    -0.05100
C1168       C  0.18821832  0.52789186  0.33725572     0.94000
O1169       O  0.15102521  0.99072239  0.27291383    -0.81400
C1170       C  0.13278051  0.98573901  0.25727575     0.94100
O1171       O  0.14045267  0.91240663  0.39987477    -0.81400
Mg1172     Mg  0.02632836  0.86010718  0.35579461     1.58200
O1173       O  0.17504702  0.51574363  0.31939865    -0.79700
O1174       O  0.49253476  0.81427743  0.30639226    -0.81400
O1175       O  0.31117146  0.85985357  0.34080440    -0.87000
C1176       C  0.36627195  0.93038773  0.38205317     0.89000
Mg1177     Mg  0.32639094  0.85561189  0.30928752     1.58100
O1178       O  0.30715684  0.93710514  0.35759014    -0.86700
O1179       O  0.27487298  0.86488651  0.35606910    -0.74000
C1180       C  0.38255900  0.99025794  0.26447587     0.94100
O1181       O  0.38529134  0.89339849  0.34579786    -0.73900
O1182       O  0.38657116  0.96762200  0.26601273    -0.81400
Mg1183     Mg  0.34267853  0.86716672  0.36693271     1.58000
C1184       C  0.32768990  0.52118394  0.33132375     0.94000
O1185       O  0.30494932  0.83920504  0.39108931    -0.79600
H1186       H  0.26268369  0.92172687  0.35264680    -0.05000
C1187       C  0.39082067  0.98440830  0.32963724     0.89000
O1188       O  0.30193172  0.87849616  0.29342423    -0.74100
O1189       O  0.34243924  0.90850933  0.37505241    -0.86900
O1190       O  0.32787551  0.00909647  0.34922771    -0.79700
C1191       C  0.31897196  0.96461716  0.41153489     0.94100
C1192       C  0.29193811  0.84456411  0.40671908     0.94000
Mg1193     Mg  0.33197721  0.96827317  0.30491622     1.58000
O1194       O  0.36879314  0.99630143  0.27927105    -0.79600
O1195       O  0.28966060  0.94174591  0.32645556    -0.73900
O1196       O  0.31503303  0.93794232  0.40924553    -0.79700
O1197       O  0.34257134  0.82338560  0.35824780    -0.81400
O1198       O  0.36065821  0.89857285  0.26369432    -0.79700
C1199       C  0.28559609  0.93326775  0.34606400     0.88400
O1200       O  0.33266411  0.92744552  0.29726253    -0.86900
O1201       O  0.36347472  0.97647680  0.33142277    -0.87000
O1202       O  0.39981585  0.97074727  0.31697041    -0.74100
Mg1203     Mg  0.29813190  0.90310413  0.38145013     1.58000
O1204       O  0.32938738  0.98389402  0.39616306    -0.81400
H1205       H  0.26706373  0.83293246  0.33322067    -0.05200
O1206       O  0.36736533  0.89853885  0.31504087    -0.86700
H1207       H  0.41179500  0.91311063  0.31936559    -0.05000
H1208       H  0.29283175  0.91035902  0.28152543    -0.05200
C1209       C  0.38904624  0.90189467  0.32621427     0.88400
C1210       C  0.28379005  0.85153337  0.34303454     0.89000
C1211       C  0.30869367  0.90585946  0.29022066     0.89000
H1212       H  0.40742046  0.00286787  0.33960430    -0.05100
O1213       O  0.37242345  0.95765865  0.37903772    -0.74200
Mg1214     Mg  0.37697336  0.93277794  0.29147021     1.58000
H1215       H  0.38241969  0.92625993  0.39069409    -0.05100
C1216       C  0.34516956  0.81312798  0.34000702     0.94000
O1217       O  0.34411868  0.85202598  0.27632942    -0.81400
C1218       C  0.35519313  0.87144558  0.26111786     0.94100
O1219       O  0.28892204  0.86791572  0.40691316    -0.81400
Mg1220     Mg  0.34763323  0.98040011  0.36302371     1.58200
O1221       O  0.34516527  0.82600042  0.32232845    -0.79700
O1222       O  0.33127134  0.51097723  0.31340828    -0.81400
C1223       C  0.40357311  0.84764141  0.18342141     0.03600
C1224       C  0.43075677  0.84621346  0.18323384     0.03600
C1225       C  0.43836998  0.83543043  0.16452040    -0.16900
C1226       C  0.41995199  0.82738096  0.14577365     0.03600
C1227       C  0.39418091  0.83132351  0.14581385     0.03600
C1228       C  0.38614615  0.84100945  0.16457262    -0.16900
H1229       H  0.36536234  0.84229141  0.16472479     0.05700
H1230       H  0.45875924  0.83349575  0.16449861     0.05700
O1231       O  0.22321320  0.52909543  0.00544193    -0.87000
C1232       C  0.23732093  0.97632082  0.04880611     0.89000
Mg1233     Mg  0.19971866  0.51133625  0.97530281     1.58100
O1234       O  0.30204222  0.52911152  0.01898083    -0.86700
O1235       O  0.26625619  0.56582122  0.01833731    -0.74000
C1236       C  0.26584264  0.94261960  0.93041422     0.94100
O1237       O  0.17903756  0.95707693  0.01481709    -0.73900
O1238       O  0.24036349  0.94177880  0.93116058    -0.81400
Mg1239     Mg  0.20004452  0.00231227  0.03371235     1.58000
C1240       C  0.35735720  0.49689455  0.99314714     0.94000
O1241       O  0.21534835  0.54397006  0.05594968    -0.79600
H1242       H  0.33289570  0.57164993  0.01034381    -0.05000
C1243       C  0.25721125  0.94161339  0.99571356     0.89000
O1244       O  0.24520521  0.53084102  0.95676424    -0.74100
O1245       O  0.24061588  0.00007358  0.04085717    -0.86900
O1246       O  0.34772931  0.50273614  0.01050791    -0.79700
C1247       C  0.32356571  0.52194889  0.07264618     0.94100
C1248       C  0.23485825  0.55553328  0.07122087     0.94000
Mg1249     Mg  0.30015362  0.49455162  0.96787311     1.58000
O1250       O  0.28400673  0.95196317  0.94654052    -0.79600
O1251       O  0.32146925  0.54021868  0.98638892    -0.73900
O1252       O  0.30309672  0.52947152  0.07134420    -0.79700
O1253       O  0.15746790  0.00531599  0.02609389    -0.81400
O1254       O  0.19743584  0.96863300  0.93005026    -0.79700
C1255       C  0.31945441  0.54796137  0.00563988     0.88400
O1256       O  0.26001714  0.49751020  0.96064889    -0.86900
O1257       O  0.27726209  0.96876745  0.99630673    -0.87000
O1258       O  0.23412651  0.93219807  0.98332625    -0.74100
Mg1259     Mg  0.28223583  0.54364431  0.04373043     1.58000
O1260       O  0.32795448  0.50786664  0.05728150    -0.81400
H1261       H  0.24076729  0.57230613  0.99587424    -0.05200
O1262       O  0.19822169  0.96880103  0.98222022    -0.86700
H1263       H  0.16730585  0.92614303  0.99049703    -0.05000
H1264       H  0.28360925  0.53516502  0.94288908    -0.05200
C1265       C  0.18080755  0.94972976  0.99542331     0.88400
C1266       C  0.24299461  0.55632386  0.00615502     0.89000
C1267       C  0.26376739  0.52150770  0.95286079     0.89000
H1268       H  0.25912148  0.92560503  0.00617326    -0.05100
O1269       O  0.25623697  0.96738508  0.04500846    -0.74200
Mg1270     Mg  0.21825163  0.95432548  0.95764745     1.58000
H1271       H  0.21762528  0.96256849  0.05887525    -0.05100
C1272       C  0.14296495  0.00082237  0.00835999     0.94000
O1273       O  0.17360353  0.99137529  0.94409184    -0.81400
C1274       C  0.17752382  0.97691381  0.92877996     0.94100
O1275       O  0.26058921  0.55691500  0.07017226    -0.81400
Mg1276     Mg  0.30150736  0.98736067  0.02615451     1.58200
O1277       O  0.15340833  0.99697359  0.99063129    -0.79700
O1278       O  0.34213749  0.49074511  0.97562866    -0.81400
O1279       O  0.28244466  0.80683188  0.99130438    -0.87000
C1280       C  0.26756172  0.73549891  0.95213704     0.89000
Mg1281     Mg  0.30157451  0.81181664  0.02290816     1.58100
O1282       O  0.20222779  0.72888504  0.97752203    -0.86700
O1283       O  0.24076567  0.80129449  0.97651532    -0.74000
C1284       C  0.22666179  0.67824553  0.07022548     0.94100
O1285       O  0.32390432  0.77462225  0.98750059    -0.73900
O1286       O  0.25316292  0.70140052  0.06852503    -0.81400
Mg1287     Mg  0.30705941  0.79943746  0.96546588     1.58000
C1288       C  0.13848500  0.64477534  0.00471121     0.94000
O1289       O  0.29683260  0.82552204  0.93962718    -0.79600
H1290       H  0.17251536  0.74344457  0.98210390    -0.05000
C1291       C  0.23909404  0.68268215  0.00568049     0.89000
O1292       O  0.25415103  0.78866156  0.03884046    -0.74100
O1293       O  0.26550932  0.75763012  0.95819651    -0.86900
O1294       O  0.15095747  0.65721924  0.98678915    -0.79700
C1295       C  0.18464636  0.69874548  0.92465022     0.94100
C1296       C  0.27669256  0.81937880  0.92506674     0.94000
Mg1297     Mg  0.19598662  0.69828045  0.03022000     1.58000
O1298       O  0.20634703  0.67170593  0.05573423    -0.79600
O1299       O  0.17932103  0.72368393  0.00843447    -0.73900
O1300       O  0.20741097  0.72566803  0.92576706    -0.79700
O1301       O  0.35064565  0.84365946  0.97386880    -0.81400
O1302       O  0.29433716  0.77094076  0.06933302    -0.79700
C1303       C  0.18409164  0.73232450  0.98885682     0.88400
O1304       O  0.23714947  0.73970547  0.03707737    -0.86900
O1305       O  0.21964403  0.69046297  0.00397275    -0.87000
O1306       O  0.26228432  0.69703058  0.01783095    -0.74100
Mg1307     Mg  0.22567825  0.76177767  0.95249769     1.58000
O1308       O  0.17683443  0.68069150  0.94061983    -0.81400
H1309       H  0.26632677  0.83469076  0.99815217    -0.05200
O1310       O  0.30020707  0.76923914  0.01805596    -0.86700
H1311       H  0.33093164  0.75580905  0.01426405    -0.05000
H1312       H  0.21375380  0.75674428  0.05179876    -0.05200
C1313       C  0.31901500  0.76634671  0.00713180     0.88400
C1314       C  0.26369266  0.81538205  0.98891977     0.89000
C1315       C  0.23421960  0.76130619  0.04314297     0.89000
H1316       H  0.23684139  0.66385504  0.99602897    -0.05100
O1317       O  0.24678879  0.70833130  0.95627742    -0.74200
Mg1318     Mg  0.27700106  0.73582175  0.04244129     1.58000
H1319       H  0.28774535  0.73935126  0.94341508    -0.05100
C1320       C  0.36323099  0.85340990  0.99228102     0.94000
O1321       O  0.32308159  0.81727379  0.05590846    -0.81400
C1322       C  0.31541511  0.79847428  0.07144137     0.94100
O1323       O  0.25009551  0.79613797  0.92622634    -0.81400
Mg1324     Mg  0.19942424  0.68565941  0.97283918     1.58200
O1325       O  0.34967122  0.84051415  0.00976365    -0.79700
O1326       O  0.15244605  0.65473981  0.02260792    -0.81400
O1327       O  0.02374548  0.71587649  0.99482982    -0.87000
C1328       C  0.47210885  0.73332693  0.95253511     0.89000
Mg1329     Mg  0.00788863  0.69619873  0.02654335     1.58100
O1330       O  0.03176482  0.79766684  0.97886223    -0.86700
O1331       O  0.06209444  0.75524238  0.97952467    -0.74000
C1332       C  0.45146244  0.77693242  0.07174355     0.94100
O1333       O  0.45097901  0.67866489  0.98965497    -0.73900
O1334       O  0.44751680  0.75005019  0.07218020    -0.81400
Mg1335     Mg  0.49316194  0.69242517  0.96812690     1.58000
C1336       C  0.00979358  0.86169522  0.00535666     0.94000
O1337       O  0.03003444  0.70005039  0.94293677    -0.79600
H1338       H  0.07598776  0.82474134  0.98602206    -0.05000
C1339       C  0.44671124  0.76269563  0.00736641     0.89000
O1340       O  0.03314969  0.74316758  0.04294289    -0.74100
O1341       O  0.49584430  0.73476399  0.95910538    -0.86900
O1342       O  0.01046321  0.84940437  0.98747760    -0.79700
C1343       C  0.02232317  0.81754214  0.92542494     0.94100
C1344       C  0.04572230  0.71883678  0.92803441     0.94000
Mg1345     Mg  0.00448895  0.80369051  0.03218259     1.58000
O1346       O  0.46630692  0.79529673  0.05642385    -0.79600
O1347       O  0.04718547  0.81787282  0.01106596    -0.73900
O1348       O  0.03009225  0.79720292  0.92680815    -0.79700
O1349       O  0.49158555  0.64814390  0.97738484    -0.81400
O1350       O  0.46970516  0.70023544  0.07378197    -0.79700
C1351       C  0.05255317  0.81400478  0.99154415     0.88400
O1352       O  0.00252551  0.76177706  0.04115063    -0.86900
O1353       O  0.47443673  0.78034912  0.00525061    -0.87000
O1354       O  0.43642405  0.74073674  0.02070616    -0.74100
Mg1355     Mg  0.04165167  0.77318919  0.95423371     1.58000
O1356       O  0.00886681  0.82266176  0.94092008    -0.81400
H1357       H  0.06716577  0.72951972  0.00245381    -0.05200
O1358       O  0.46691598  0.69889686  0.02177403    -0.86700
H1359       H  0.42258840  0.67182216  0.01495720    -0.05000
H1360       H  0.04284740  0.78359181  0.05636262    -0.05200
C1361       C  0.44593364  0.68252285  0.00924624     0.88400
C1362       C  0.05152435  0.73305111  0.99263980     0.89000
C1363       C  0.02657520  0.76361860  0.04742505     0.89000
H1364       H  0.43086346  0.76568461  0.99737904    -0.05100
O1365       O  0.46581453  0.75400076  0.95691460    -0.74200
Mg1366     Mg  0.45715900  0.72331060  0.04628303     1.58000
H1367       H  0.45589894  0.71357057  0.94337851    -0.05100
C1368       C  0.48822083  0.63493032  0.99552335     0.94000
O1369       O  0.49084217  0.67476587  0.05962983    -0.81400
C1370       C  0.47773326  0.68010259  0.07524206     0.94100
O1371       O  0.05126356  0.74632101  0.92824182    -0.81400
Mg1372     Mg  0.49091051  0.80072117  0.97374740     1.58200
O1373       O  0.48776795  0.64765402  0.01321558    -0.79700
O1374       O  0.00599230  0.84787161  0.02324992    -0.81400
O1375       O  0.14175495  0.52548123  0.67169809    -0.87000
C1376       C  0.19675442  0.59822774  0.71061082     0.89000
Mg1377     Mg  0.15667130  0.52116140  0.63996686     1.58100
O1378       O  0.13654693  0.60202845  0.68511442    -0.86700
O1379       O  0.10469522  0.52973281  0.68629388    -0.74000
C1380       C  0.21188823  0.65492099  0.59369774     0.94100
O1381       O  0.21572317  0.55987198  0.67552940    -0.73900
O1382       O  0.21600540  0.63229335  0.59467662    -0.81400
Mg1383     Mg  0.17397904  0.53425024  0.69770732     1.58000
C1384       C  0.15561363  0.68667362  0.65855604     0.94000
O1385       O  0.13806740  0.50761129  0.72430548    -0.79600
H1386       H  0.09184787  0.58618618  0.68077842    -0.05000
C1387       C  0.21975127  0.65077638  0.65771163     0.89000
O1388       O  0.13132495  0.54312827  0.62409636    -0.74100
O1389       O  0.17300233  0.57542581  0.70446456    -0.86900
O1390       O  0.15466525  0.67350025  0.67632708    -0.79700
C1391       C  0.14688714  0.63087220  0.73811049     0.94100
C1392       C  0.12367095  0.51350373  0.73872245     0.94000
Mg1393     Mg  0.16078794  0.63347213  0.63306339     1.58000
O1394       O  0.19829455  0.66087789  0.60860071    -0.79600
O1395       O  0.11823284  0.60690309  0.65444175    -0.73900
O1396       O  0.14652708  0.60572545  0.73684856    -0.79700
O1397       O  0.17383138  0.99053586  0.68932816    -0.81400
O1398       O  0.19129344  0.56285012  0.59331839    -0.79700
C1399       C  0.11460581  0.59798369  0.67394175     0.88400
O1400       O  0.16189224  0.59246289  0.62602561    -0.86900
O1401       O  0.19229275  0.64236693  0.65938204    -0.87000
O1402       O  0.22909384  0.63696452  0.64550798    -0.74100
Mg1403     Mg  0.12832681  0.56956561  0.71026476     1.58000
O1404       O  0.15599814  0.64931358  0.72232602    -0.81400
H1405       H  0.09780899  0.49656622  0.66477470    -0.05200
O1406       O  0.19730487  0.56462868  0.64487028    -0.86700
H1407       H  0.24182106  0.57936333  0.64888157    -0.05000
H1408       H  0.12115627  0.57382459  0.61138501    -0.05200
C1409       C  0.21917992  0.56822564  0.65591218     0.88400
C1410       C  0.11418452  0.51615731  0.67399577     0.89000
C1411       C  0.13768017  0.57018013  0.61995926     0.89000
H1412       H  0.23613719  0.66977243  0.66740005    -0.05100
O1413       O  0.20183218  0.62500953  0.70684918    -0.74200
Mg1414     Mg  0.20661541  0.59805569  0.62062149     1.58000
H1415       H  0.21374696  0.59534718  0.71920878    -0.05100
C1416       C  0.17668122  0.98041035  0.67108344     0.94000
O1417       O  0.17299983  0.51629467  0.60646707    -0.81400
C1418       C  0.18423274  0.53517556  0.59091331     0.94100
O1419       O  0.11935099  0.53595508  0.73687809    -0.81400
Mg1420     Mg  0.17576267  0.64615333  0.69033997     1.58200
O1421       O  0.17719415  0.49337877  0.65343468    -0.79700
O1422       O  0.16000012  0.67704487  0.64061957    -0.81400
C1423       C  0.07877459  0.67381713  0.85187314     0.03600
C1424       C  0.10524043  0.67110307  0.85093851     0.03600
C1425       C  0.11290778  0.66203064  0.83170942    -0.16900
C1426       C  0.09473627  0.65528450  0.81327341     0.03600
C1427       C  0.06753793  0.65654809  0.81410936     0.03600
C1428       C  0.05979799  0.66592964  0.83343231    -0.16900
H1429       H  0.03912679  0.66734180  0.83405567     0.05700
H1430       H  0.13353084  0.66048188  0.83101429     0.05700
C1431       C  0.06547171  0.90564922  0.85513913     0.03600
C1432       C  0.09450800  0.93291958  0.85540215     0.03600
C1433       C  0.10411893  0.95184408  0.83700515    -0.16900
C1434       C  0.08580337  0.94431998  0.81847163     0.03600
C1435       C  0.05701585  0.91748864  0.81824377     0.03600
C1436       C  0.04698319  0.89861837  0.83653584    -0.16900
H1437       H  0.02509727  0.87765524  0.83594130     0.05700
H1438       H  0.12608466  0.97274472  0.83710813     0.05700
O1439       O  0.46630870  0.62417327  0.67405810    -0.87000
C1440       C  0.39667249  0.60407098  0.71639801     0.89000
Mg1441     Mg  0.46905178  0.64438095  0.64295225     1.58100
O1442       O  0.39329346  0.54145998  0.68865316    -0.86700
O1443       O  0.46600171  0.58463274  0.68795963    -0.74000
C1444       C  0.33210295  0.56261109  0.59868443     0.94100
O1445       O  0.43124951  0.66145817  0.68109612    -0.73900
O1446       O  0.35422281  0.58995564  0.59931883    -0.81400
Mg1447     Mg  0.45972065  0.64655709  0.70142427     1.58000
C1448       C  0.30782542  0.97553256  0.66237549     0.94000
O1449       O  0.48933661  0.63795829  0.72556154    -0.79600
H1450       H  0.41112213  0.51522061  0.68127375    -0.05000
C1451       C  0.34051797  0.57388930  0.66312850     0.89000
O1452       O  0.44767940  0.59789973  0.62610224    -0.74100
O1453       O  0.41955843  0.60374768  0.70975276    -0.86900
O1454       O  0.32057793  0.98778646  0.68034163    -0.79700
C1455       C  0.36522858  0.51987547  0.74214122     0.94100
C1456       C  0.48583634  0.61843831  0.73990673     0.94000
Mg1457     Mg  0.35900602  0.53532990  0.63657949     1.58000
O1458       O  0.32851088  0.54354307  0.61339566    -0.79600
O1459       O  0.38846445  0.52143379  0.65648936    -0.73900
O1460       O  0.39281080  0.54159864  0.74071551    -0.79700
O1461       O  0.00326713  0.68994617  0.69205949    -0.81400
O1462       O  0.42438734  0.63878972  0.59778137    -0.79700
C1463       C  0.39798961  0.52546170  0.67590944     0.88400
O1464       O  0.39820741  0.57821738  0.62877017    -0.86900
O1465       O  0.35110440  0.55668006  0.66412309    -0.87000
O1466       O  0.35214891  0.59701489  0.65084797    -0.74100
Mg1467     Mg  0.42748907  0.56564140  0.71323881     1.58000
O1468       O  0.34615389  0.51354573  0.72683512    -0.81400
H1469       H  0.49676192  0.61197440  0.66541562    -0.05200
O1470       O  0.42497636  0.64024430  0.64923253    -0.86700
H1471       H  0.40882860  0.66802460  0.65629438    -0.05000
H1472       H  0.41690422  0.55760194  0.61243138    -0.05200
C1473       C  0.42130441  0.65713804  0.66176756     0.88400
C1474       C  0.47740719  0.60747713  0.67545125     0.89000
C1475       C  0.42055590  0.57718158  0.62179605     0.89000
H1476       H  0.32144247  0.56963033  0.67339388    -0.05100
O1477       O  0.36982385  0.58256204  0.71212821    -0.74200
Mg1478     Mg  0.39015165  0.61590473  0.62518483     1.58000
H1479       H  0.39955338  0.62344141  0.72567357    -0.05100
C1480       C  0.01253881  0.70356778  0.67398702     0.94000
O1481       O  0.47215914  0.66556858  0.61003849    -0.81400
C1482       C  0.45239758  0.65871780  0.59511743     0.94100
O1483       O  0.46335200  0.59127990  0.73916974    -0.81400
Mg1484     Mg  0.34874146  0.53602423  0.69479901     1.58200
O1485       O  0.49683237  0.69288782  0.65675381    -0.79700
O1486       O  0.31689950  0.99013585  0.64468120    -0.81400
O1487       O  0.35836781  0.80697291  0.66140889    -0.87000
C1488       C  0.42786053  0.85876067  0.61919173     0.89000
Mg1489     Mg  0.35310232  0.82498190  0.69163407     1.58100
O1490       O  0.43479179  0.80255569  0.64788324    -0.86700
O1491       O  0.36223469  0.76928833  0.64782140    -0.74000
C1492       C  0.48812670  0.88725843  0.73821926     0.94100
O1493       O  0.38988897  0.87942488  0.65302401    -0.73900
O1494       O  0.46453657  0.88998059  0.73695110    -0.81400
Mg1495     Mg  0.36404786  0.83482309  0.63350887     1.58000
C1496       C  0.02113925  0.82948825  0.67488607     0.94000
O1497       O  0.33635298  0.79442412  0.61084563    -0.79600
H1498       H  0.41983128  0.75916750  0.65592040    -0.05000
C1499       C  0.48180357  0.88892129  0.67289410     0.89000
O1500       O  0.37624175  0.80284089  0.71037133    -0.74100
O1501       O  0.40608480  0.83526658  0.62657434    -0.86900
O1502       O  0.50582583  0.82407142  0.65744277    -0.79700
C1503       C  0.46435265  0.81072991  0.59416325     0.94100
C1504       C  0.34305016  0.78221268  0.59537344     0.94000
Mg1505     Mg  0.46716790  0.83401865  0.70008233     1.58000
O1506       O  0.49484874  0.87428202  0.72324582    -0.79600
O1507       O  0.44074727  0.78945308  0.68043105    -0.73900
O1508       O  0.43686678  0.80503368  0.59563802    -0.79700
O1509       O  0.31900134  0.83295727  0.64081133    -0.81400
O1510       O  0.39408753  0.86589935  0.73740512    -0.79700
C1511       C  0.43142372  0.78276298  0.66099517     0.88400
O1512       O  0.42534093  0.83396945  0.70720099    -0.86900
O1513       O  0.47302351  0.86143695  0.67198260    -0.87000
O1514       O  0.46877912  0.89914047  0.68511818    -0.74100
Mg1515     Mg  0.40124547  0.79082994  0.62280382     1.58000
O1516       O  0.48299388  0.82258564  0.60987695    -0.81400
H1517       H  0.33050405  0.76375351  0.67030437    -0.05200
O1518       O  0.39596535  0.86597319  0.68536310    -0.86700
H1519       H  0.41012776  0.90935100  0.67781778    -0.05000
H1520       H  0.40829522  0.79573098  0.72462808    -0.05200
C1521       C  0.39896414  0.88586741  0.67250162     0.88400
C1522       C  0.34937613  0.77945618  0.66025299     0.89000
C1523       C  0.40371985  0.81045399  0.71464498     0.89000
H1524       H  0.50062269  0.90455484  0.66277643    -0.05100
O1525       O  0.45531374  0.86590846  0.62318606    -0.74200
Mg1526     Mg  0.42987531  0.87844081  0.71027960     1.58000
H1527       H  0.42346528  0.87378977  0.60942301    -0.05100
C1528       C  0.30890478  0.83751294  0.65845044     0.94000
O1529       O  0.34776748  0.84542153  0.72283610    -0.81400
C1530       C  0.36622723  0.85928401  0.73829042     0.94100
O1531       O  0.36689225  0.77989553  0.59599357    -0.81400
Mg1532     Mg  0.47788944  0.84292620  0.64168233     1.58200
O1533       O  0.32339015  0.84194584  0.67617150    -0.79700
O1534       O  0.01204024  0.83552480  0.69243834    -0.81400
C1535       C  0.30745961  0.91994595  0.84904216     0.03600
C1536       C  0.30919838  0.89314286  0.84801973     0.03600
C1537       C  0.31979391  0.88623402  0.82917606    -0.16900
C1538       C  0.32871414  0.90550454  0.81106003     0.03600
C1539       C  0.32643951  0.93230724  0.81191607     0.03600
C1540       C  0.31564490  0.93903013  0.83095840    -0.16900
H1541       H  0.31446467  0.95974826  0.83194916     0.05700
H1542       H  0.32090321  0.86545348  0.82857656     0.05700
C1543       C  0.00536242  0.76647558  0.47921547     0.03600
C1544       C  0.00395757  0.73798042  0.47987014     0.03600
C1545       C  0.99588621  0.72146193  0.49922403    -0.16900
C1546       C  0.48949255  0.73275668  0.51802501     0.03600
C1547       C  0.49142542  0.76160422  0.51759478     0.03600
C1548       C  0.99911725  0.77792913  0.49805140    -0.16900
H1549       H  0.00091081  0.80012644  0.49758281     0.05700
H1550       H  0.99437117  0.69937629  0.49960736     0.05700
C1551       C  0.26034497  0.76753506  0.48181592     0.03600
C1552       C  0.23213734  0.73999693  0.48099669     0.03600
C1553       C  0.22392443  0.71909866  0.49792968    -0.16900
C1554       C  0.24316317  0.72579734  0.51591539     0.03600
C1555       C  0.27085433  0.75392726  0.51713158     0.03600
C1556       C  0.27946878  0.77444992  0.49988301    -0.16900
H1557       H  0.30090867  0.79586906  0.50057958     0.05700
H1558       H  0.20237055  0.69778660  0.49725387     0.05700
C1559       C  0.23299573  0.98396210  0.48057212     0.03600
C1560       C  0.26392710  0.99201602  0.48373918     0.03600
C1561       C  0.27854119  0.00571837  0.50331941    -0.16900
C1562       C  0.26290116  0.51110837  0.51993649     0.03600
C1563       C  0.23193270  0.50272828  0.51696296     0.03600
C1564       C  0.21728654  0.98921873  0.49732938    -0.16900
H1565       H  0.19376534  0.98350261  0.49487938     0.05700
H1566       H  0.30213895  0.01171059  0.50580273     0.05700
C1567       C  0.99733675  0.52537804  0.99939264     0.03600
C1568       C  0.02644819  0.52845215  0.00238369     0.03600
C1569       C  0.02939596  0.00221251  0.00396448     0.03600
C1570       C  0.00331870  0.97288663  0.00231730     0.03600
C1571       C  0.47429497  0.96984500  0.99906045     0.03600
C1572       C  0.47119774  0.99596414  0.99790358     0.03600
C1573       C  0.33793449  0.69549889  0.33663187     0.03600
C1574       C  0.36413577  0.69275512  0.33347053     0.03600
C1575       C  0.36128017  0.66363768  0.33206847     0.03600
C1576       C  0.33214250  0.63715736  0.33388950     0.03600
C1577       C  0.30579779  0.63977946  0.33653484     0.03600
C1578       C  0.30869761  0.66896344  0.33776669     0.03600
C1579       C  0.13852091  0.83554824  0.66938201     0.03600
C1580       C  0.16748845  0.86221428  0.66800657     0.03600
C1581       C  0.19392701  0.85995870  0.66470045     0.03600
C1582       C  0.19138748  0.83101900  0.66259252     0.03600
C1583       C  0.16234937  0.80417035  0.66419961     0.03600
C1584       C  0.13599160  0.80655586  0.66790504     0.03600
C1585       C  0.06249805  0.82700845  0.65390838     0.25000
C1586       C  0.05114694  0.83055569  0.67398418    -0.23200
C1587       C  0.07011631  0.83790383  0.69245242     0.19900
C1588       C  0.09932986  0.84124973  0.69082310     0.24900
C1589       C  0.11007522  0.83728542  0.67081611    -0.23100
C1590       C  0.09160921  0.83055820  0.65239896     0.19800
F1591       F  0.10158501  0.82662552  0.63289209    -0.13100
F1592       F  0.04560712  0.82018821  0.63549929    -0.15400
F1593       F  0.11677978  0.84741649  0.70888930    -0.15400
F1594       F  0.06049316  0.84174446  0.71212407    -0.13100
C1595       C  0.26246422  0.82958240  0.67880357     0.25000
C1596       C  0.27861276  0.83572814  0.65902629    -0.23200
C1597       C  0.26442293  0.83787982  0.63997908     0.19900
C1598       C  0.23540156  0.83507451  0.64089420     0.24900
C1599       C  0.21983358  0.82945026  0.66072305    -0.23100
C1600       C  0.23340987  0.82637382  0.67955143     0.19800
F1601       F  0.21880926  0.82119436  0.69888335    -0.13100
F1602       F  0.27447247  0.82615109  0.69753093    -0.15400
F1603       F  0.22273009  0.83846228  0.62250294    -0.15400
F1604       F  0.27877187  0.84323581  0.62053881    -0.13100
C1605       C  0.36393634  0.89028342  0.79396317     0.25000
C1606       C  0.33959325  0.89603343  0.79177589    -0.23200
C1607       C  0.32350263  0.88886890  0.77210029     0.19900
C1608       C  0.33151813  0.87605864  0.75495842     0.24900
C1609       C  0.35584339  0.87009048  0.75716147    -0.23100
C1610       C  0.37201112  0.87753014  0.77689583     0.19800
F1611       F  0.39547962  0.87213548  0.77984612    -0.13100
F1612       F  0.37981318  0.89684348  0.81284380    -0.15400
F1613       F  0.31581408  0.87014295  0.73604520    -0.15400
F1614       F  0.29938875  0.89338139  0.76968356    -0.13100
C1615       C  0.33461307  0.76777200  0.55583530     0.25000
C1616       C  0.32362572  0.77270396  0.57560507    -0.23200
C1617       C  0.29548516  0.77224263  0.57559144     0.19900
C1618       C  0.27913910  0.76747052  0.55638545     0.24900
C1619       C  0.29010133  0.76243200  0.53684617    -0.23100
C1620       C  0.31797290  0.76275426  0.53665539     0.19800
F1621       F  0.32877367  0.75764184  0.51791790    -0.13100
F1622       F  0.36182240  0.76856014  0.55483932    -0.15400
F1623       F  0.25244148  0.76775178  0.55684067    -0.15400
F1624       F  0.28374793  0.77670310  0.59411913    -0.13100
C1625       C  0.49677379  0.79337416  0.57451530     0.25000
C1626       C  0.47371504  0.80128070  0.57401893    -0.23200
C1627       C  0.45728151  0.79672402  0.55458638     0.19900
C1628       C  0.46321878  0.78401051  0.53638744     0.24900
C1629       C  0.48560904  0.77537166  0.53709946    -0.23100
C1630       C  0.50270762  0.78067512  0.55622739     0.19800
F1631       F  0.02531998  0.77374551  0.55716755    -0.13100
F1632       F  0.01285867  0.79682141  0.59291770    -0.15400
F1633       F  0.44642055  0.77935166  0.51814308    -0.15400
F1634       F  0.43511076  0.80427536  0.55319168    -0.13100
C1635       C  0.26999210  0.92743562  0.68181528     0.25000
C1636       C  0.28049192  0.94419542  0.66236759    -0.23200
C1637       C  0.26284475  0.93175590  0.64337149     0.19900
C1638       C  0.23506744  0.90414875  0.64408338     0.24900
C1639       C  0.22447763  0.88818742  0.66361242    -0.23100
C1640       C  0.24240821  0.89969101  0.68233501     0.19800
F1641       F  0.23266217  0.88446007  0.70136499    -0.13100
F1642       F  0.28586500  0.93817473  0.70059203    -0.15400
F1643       F  0.21808958  0.89327557  0.62576099    -0.15400
F1644       F  0.27175713  0.94670576  0.62417698    -0.13100
C1645       C  0.08932550  0.76316000  0.65102232     0.25000
C1646       C  0.10511914  0.77885874  0.66971957    -0.23200
C1647       C  0.09013731  0.77047571  0.68982699     0.19900
C1648       C  0.05971316  0.74683091  0.69123150     0.24900
C1649       C  0.04354107  0.73112016  0.67245524    -0.23100
C1650       C  0.05884767  0.73970968  0.65228994     0.19800
F1651       F  0.04470839  0.72492550  0.63373581    -0.13100
F1652       F  0.10328777  0.77104389  0.63140225    -0.15400
F1653       F  0.04615846  0.73941083  0.71100079    -0.15400
F1654       F  0.10503026  0.78541399  0.70813557    -0.13100
C1655       C  0.31548988  0.96186338  0.78446558     0.25000
C1656       C  0.33634853  0.95463967  0.79393806    -0.23200
C1657       C  0.36712108  0.97078724  0.78752447     0.19900
C1658       C  0.37674146  0.99319914  0.77148575     0.24900
C1659       C  0.35579151  0.49966942  0.76133657    -0.23100
C1660       C  0.32496338  0.98397380  0.76822430     0.19800
F1661       F  0.30413047  0.99005522  0.75920432    -0.13100
F1662       F  0.28577046  0.94717939  0.79081143    -0.15400
F1663       F  0.40653195  0.50727078  0.76515175    -0.15400
F1664       F  0.38798594  0.96518452  0.79705119    -0.13100
C1665       C  0.27045455  0.50850019  0.55981697     0.25000
C1666       C  0.27920816  0.52521308  0.54047985    -0.23200
C1667       C  0.30360083  0.55536761  0.54077650     0.19900
C1668       C  0.31962005  0.56841781  0.56001347     0.24900
C1669       C  0.31153726  0.55140502  0.57941172    -0.23100
C1670       C  0.28607990  0.52151931  0.57912070     0.19800
F1671       F  0.27683138  0.50428721  0.59735473    -0.13100
F1672       F  0.24755589  0.47899515  0.55983741    -0.15400
F1673       F  0.34390476  0.59720654  0.55929878    -0.15400
F1674       F  0.31224088  0.57202230  0.52227474    -0.13100
C1675       C  0.49074094  0.68665782  0.56576371     0.25000
C1676       C  0.46145023  0.67588189  0.57456680    -0.23200
C1677       C  0.44118279  0.68335099  0.56428835     0.19900
C1678       C  0.45036325  0.70192842  0.54596850     0.24900
C1679       C  0.47984556  0.71324445  0.53752029    -0.23100
C1680       C  0.99967495  0.70488826  0.54721133     0.19800
F1681       F  0.02800291  0.71490471  0.53888853    -0.13100
F1682       F  0.01054006  0.67940315  0.57504001    -0.15400
F1683       F  0.43036235  0.70868778  0.53634597    -0.15400
F1684       F  0.41280667  0.67362701  0.57243579    -0.13100
C1685       C  0.03260576  0.89317105  0.76041494     0.25000
C1686       C  0.00696588  0.89709101  0.75836479    -0.23200
C1687       C  0.49747589  0.90697045  0.77670441     0.19900
C1688       C  0.01297555  0.91234695  0.79647281     0.24900
C1689       C  0.03827444  0.90823138  0.79828466    -0.23100
C1690       C  0.04786592  0.89848880  0.78019227     0.19800
F1691       F  0.07226190  0.89425475  0.78170836    -0.13100
F1692       F  0.04287338  0.88379524  0.74340526    -0.15400
F1693       F  0.50368704  0.92223902  0.81374755    -0.15400
F1694       F  0.47292928  0.91102244  0.77576242    -0.13100
C1695       C  0.04806560  0.66861342  0.78045192     0.25000
C1696       C  0.04663543  0.64703462  0.79523154    -0.23200
C1697       C  0.02573430  0.61606798  0.79168075     0.19900
C1698       C  0.50636094  0.60667431  0.77360732     0.24900
C1699       C  0.00773996  0.62816578  0.75847932    -0.23100
C1700       C  0.02896269  0.65937107  0.76221247     0.19800
F1701       F  0.03087882  0.68119098  0.74855456    -0.13100
F1702       F  0.06798487  0.69871823  0.78372466    -0.15400
F1703       F  0.48616531  0.57648201  0.77107606    -0.15400
F1704       F  0.52392431  0.59486743  0.80590737    -0.13100
C1705       C  0.16042629  0.73383295  0.64078895     0.25000
C1706       C  0.15387415  0.71521982  0.65929956    -0.23200
C1707       C  0.14899597  0.72598007  0.67920519     0.19900
C1708       C  0.15208469  0.75489001  0.68072836     0.24900
C1709       C  0.15941336  0.77354718  0.66241714    -0.23100
C1710       C  0.16300490  0.76260206  0.64237242     0.19800
F1711       F  0.16903768  0.77984441  0.62428685    -0.13100
F1712       F  0.16515188  0.72468767  0.62119850    -0.15400
F1713       F  0.14852558  0.76498717  0.70028983    -0.15400
F1714       F  0.14186378  0.70889414  0.69746550    -0.13100
C1715       C  0.16359820  0.90436037  0.65057602     0.25000
C1716       C  0.17020590  0.89267564  0.66898541    -0.23200
C1717       C  0.18065947  0.91052945  0.68785763     0.19900
C1718       C  0.18425936  0.93973586  0.68835389     0.24900
C1719       C  0.17696557  0.95133919  0.67003101    -0.23100
C1720       C  0.16677486  0.93328843  0.65105612     0.19800
F1721       F  0.15865261  0.94300130  0.63311952    -0.13100
F1722       F  0.15385942  0.88758486  0.63209928    -0.15400
F1723       F  0.19478878  0.95656868  0.70675901    -0.15400
F1724       F  0.18704437  0.89950454  0.70588129    -0.13100
C1725       C  0.09079187  0.99541896  0.77215787     0.25000
C1726       C  0.11326060  0.99497052  0.75884133    -0.23200
C1727       C  0.12783416  0.97909795  0.76612091     0.19900
C1728       C  0.11990700  0.96389965  0.78603810     0.24900
C1729       C  0.09717246  0.96402045  0.79899557    -0.23100
C1730       C  0.08294264  0.98017516  0.79203273     0.19800
F1731       F  0.06117919  0.98093670  0.80446038    -0.13100
F1732       F  0.07609860  0.01034814  0.76588837    -0.15400
F1733       F  0.13383706  0.94828520  0.79244137    -0.15400
F1734       F  0.15028330  0.97879037  0.75424435    -0.13100
C1735       C  0.12221865  0.67135027  0.77809791     0.25000
C1736       C  0.10592616  0.64828861  0.79328023    -0.23200
C1737       C  0.10426466  0.62006095  0.79093166     0.19900
C1738       C  0.11845233  0.61472264  0.77342981     0.24900
C1739       C  0.13470313  0.63771808  0.75788828    -0.23100
C1740       C  0.13642154  0.66616412  0.76050228     0.19800
F1741       F  0.15202202  0.68913782  0.74618821    -0.13100
F1742       F  0.12517458  0.69926440  0.78072731    -0.15400
F1743       F  0.11581477  0.58682299  0.77166295    -0.15400
F1744       F  0.08912650  0.59774305  0.80578873    -0.13100
C1745       C  0.22348630  0.54035746  0.53729823     0.25000
C1746       C  0.21548509  0.50998027  0.53372230    -0.23200
C1747       C  0.19410584  0.98738698  0.54740085     0.19900
C1748       C  0.18269910  0.49507929  0.56559099     0.24900
C1749       C  0.19191506  0.52583979  0.56994987    -0.23100
C1750       C  0.21175508  0.54826565  0.55506684     0.19800
F1751       F  0.22141624  0.57824204  0.55825325    -0.13100
F1752       F  0.24381595  0.56263499  0.52401095    -0.15400
F1753       F  0.16338895  0.97278684  0.57910074    -0.15400
F1754       F  0.18588946  0.95778707  0.54410979    -0.13100
C1755       C  0.24432148  0.67582982  0.56051527     0.25000
C1756       C  0.22055169  0.67328764  0.57381350    -0.23200
C1757       C  0.20262102  0.68571559  0.56676346     0.19900
C1758       C  0.20876485  0.70093408  0.54706670     0.24900
C1759       C  0.23318546  0.70447851  0.53426895    -0.23100
C1760       C  0.25054636  0.69130209  0.54082695     0.19800
F1761       F  0.27391012  0.69403671  0.52835012    -0.13100
F1762       F  0.26186796  0.66389490  0.56674951    -0.15400
F1763       F  0.19171259  0.71345333  0.54090536    -0.15400
F1764       F  0.17864792  0.68261535  0.57869337    -0.13100
C1765       C  0.48659057  0.58933911  0.97739468     0.25000
C1766       C  0.48729723  0.60506046  0.99649655    -0.23200
C1767       C  0.99054123  0.59357071  0.01657762     0.19900
C1768       C  0.99393132  0.56788787  0.01739773     0.24900
C1769       C  0.49389852  0.55285658  0.99832396    -0.23100
C1770       C  0.48975592  0.56346963  0.97836005     0.19800
F1771       F  0.48935954  0.54904910  0.95971498    -0.13100
F1772       F  0.48341374  0.59922004  0.95768053    -0.15400
F1773       F  0.99741574  0.55771229  0.03690564    -0.15400
F1774       F  0.99149309  0.60765739  0.03553513    -0.13100
C1775       C  0.50558820  0.90394756  0.02400735     0.25000
C1776       C  0.01130807  0.89192560  0.00503604    -0.23200
C1777       C  0.01537229  0.90767442  0.98532955     0.19900
C1778       C  0.01290383  0.93393354  0.98457141     0.24900
C1779       C  0.00654461  0.94526272  0.00338226    -0.23100
C1780       C  0.50329313  0.93032488  0.02312960     0.19800
F1781       F  0.49742253  0.94108583  0.04157670    -0.13100
F1782       F  0.50123614  0.88978456  0.04339694    -0.15400
F1783       F  0.01621598  0.94810007  0.96531078    -0.15400
F1784       F  0.02106667  0.89740805  0.96656759    -0.13100
C1785       C  0.01498206  0.85184226  0.89961049     0.25000
C1786       C  0.03165348  0.83777489  0.90605492    -0.23200
C1787       C  0.05950449  0.84616079  0.89544088     0.19900
C1788       C  0.07073478  0.86856158  0.87926325     0.24900
C1789       C  0.05436127  0.88300144  0.87316855    -0.23100
C1790       C  0.02607931  0.87397755  0.88323553     0.19800
F1791       F  0.00938802  0.88703242  0.87743300    -0.13100
F1792       F  0.48785017  0.84413117  0.90914505    -0.15400
F1793       F  0.09749293  0.87584817  0.86931330    -0.15400
F1794       F  0.07660332  0.83357187  0.90129697    -0.13100
C1795       C  0.08189024  0.72662972  0.89708722     0.25000
C1796       C  0.05562316  0.70726697  0.90924304    -0.23200
C1797       C  0.03738790  0.67665497  0.90242791     0.19900
C1798       C  0.04490598  0.66594937  0.88381177     0.24900
C1799       C  0.07100260  0.68532511  0.87170932    -0.23100
C1800       C  0.08962595  0.71567292  0.87862249     0.19800
F1801       F  0.11502545  0.73488879  0.86719875    -0.13100
F1802       F  0.10018753  0.75612215  0.90311874    -0.15400
F1803       F  0.02672032  0.63648602  0.87762602    -0.15400
F1804       F  0.01147100  0.65722311  0.91328985    -0.13100
C1805       C  0.09463245  0.60048874  0.02375431     0.25000
C1806       C  0.10780103  0.61674579  0.00444822    -0.23200
C1807       C  0.09263611  0.60420232  0.98462468     0.19900
C1808       C  0.06605251  0.57567902  0.98407773     0.24900
C1809       C  0.05393798  0.55920003  0.00322015    -0.23100
C1810       C  0.06797369  0.57197907  0.02307505     0.19800
F1811       F  0.05599737  0.55662152  0.04181373    -0.13100
F1812       F  0.10787981  0.61164107  0.04331129    -0.15400
F1813       F  0.05253904  0.56370034  0.96472964    -0.15400
F1814       F  0.10386704  0.61898617  0.96558979    -0.13100
C1815       C  0.43728727  0.92496920  0.97706518     0.25000
C1816       C  0.44698783  0.93921089  0.99730470    -0.23200
C1817       C  0.43060960  0.92443931  0.01594275     0.19900
C1818       C  0.40427319  0.89591748  0.01441427     0.24900
C1819       C  0.39347821  0.88175456  0.99398770    -0.23100
C1820       C  0.41063403  0.89653660  0.97534287     0.19800
F1821       F  0.40144705  0.88385531  0.95539696    -0.13100
F1822       F  0.45338972  0.93892761  0.95892786    -0.15400
F1823       F  0.38888559  0.88286688  0.03299320    -0.15400
F1824       F  0.43983481  0.93800455  0.03564166    -0.13100
C1825       C  0.31533612  0.85346529  0.89775913     0.25000
C1826       C  0.28504083  0.83877480  0.90557168    -0.23200
C1827       C  0.26245597  0.84070672  0.89352796     0.19900
C1828       C  0.27008289  0.85728931  0.87427185     0.24900
C1829       C  0.30040712  0.87243548  0.86681945    -0.23100
C1830       C  0.32288149  0.87006026  0.87849476     0.19800
F1831       F  0.35231491  0.88451385  0.87149629    -0.13100
F1832       F  0.33754831  0.85113818  0.90842888    -0.15400
F1833       F  0.24789598  0.85879597  0.86293098    -0.15400
F1834       F  0.23304736  0.82689464  0.90052583    -0.13100
C1835       C  0.17582022  0.70733597  0.88597044     0.25000
C1836       C  0.16550870  0.68934565  0.90484288    -0.23200
C1837       C  0.13518781  0.66460725  0.90545491     0.19900
C1838       C  0.11549624  0.65877694  0.88796364     0.24900
C1839       C  0.12563976  0.67754409  0.86965846    -0.23100
C1840       C  0.15604322  0.70138166  0.86855632     0.19800
F1841       F  0.16638088  0.71930384  0.85068584    -0.13100
F1842       F  0.20487919  0.73110544  0.88442752    -0.15400
F1843       F  0.08653933  0.63469160  0.88883670    -0.15400
F1844       F  0.12407103  0.64667617  0.92325249    -0.13100
C1845       C  0.40041061  0.99794108  0.01421168     0.25000
C1846       C  0.38636844  0.49606615  0.99402207    -0.23200
C1847       C  0.39925777  0.49120132  0.97520376     0.19900
C1848       C  0.42626637  0.48994529  0.97649493     0.24900
C1849       C  0.44064046  0.49319284  0.99654209    -0.23100
C1850       C  0.42714160  0.99643256  0.01539117     0.19800
F1851       F  0.44035454  0.99885073  0.03499608    -0.13100
F1852       F  0.38836227  0.00112656  0.03301998    -0.15400
F1853       F  0.43884432  0.48634852  0.95810674    -0.15400
F1854       F  0.38599477  0.48789511  0.95551327    -0.13100
C1855       C  0.07641002  0.50786175  0.98685157     0.25000
C1856       C  0.05992281  0.00498177  0.00570083    -0.23200
C1857       C  0.07092274  0.00145712  0.02571485     0.19900
C1858       C  0.09784087  0.99999563  0.02675435     0.24900
C1859       C  0.11399286  0.00169843  0.00767583    -0.23100
C1860       C  0.10298359  0.00594471  0.98768369     0.19800
F1861       F  0.11827144  0.50925810  0.96888441    -0.13100
F1862       F  0.06611154  0.51144032  0.96739256    -0.15400
F1863       F  0.10768296  0.99634617  0.04636716    -0.15400
F1864       F  0.05521816  0.99882363  0.04418656    -0.13100
C1865       C  0.10586664  0.94866931  0.89452691     0.25000
C1866       C  0.11534066  0.94307487  0.87449519    -0.23200
C1867       C  0.14585644  0.94993969  0.87214472     0.19900
C1868       C  0.16637492  0.96178865  0.88952757     0.24900
C1869       C  0.15691882  0.96733992  0.90963635    -0.23100
C1870       C  0.12639205  0.96064691  0.91191201     0.19800
F1871       F  0.11603420  0.96477381  0.93119971    -0.13100
F1872       F  0.07688719  0.94320102  0.89715108    -0.15400
F1873       F  0.19559052  0.96806771  0.88659693    -0.15400
F1874       F  0.15577432  0.94499009  0.85294015    -0.13100
C1875       C  0.26888309  0.92542801  0.87080272     0.25000
C1876       C  0.29785505  0.92831965  0.86931587    -0.23200
C1877       C  0.31604711  0.93526763  0.88795030     0.19900
C1878       C  0.30510401  0.93837157  0.90799574     0.24900
C1879       C  0.27574484  0.93506229  0.90977033    -0.23100
C1880       C  0.25777364  0.92854524  0.89081899     0.19800
F1881       F  0.22950724  0.92544358  0.89146941    -0.13100
F1882       F  0.25092135  0.91854666  0.85293769    -0.15400
F1883       F  0.32358023  0.94501685  0.92555026    -0.15400
F1884       F  0.34443547  0.93873934  0.88671428    -0.13100
C1885       C  0.43519604  0.82939788  0.10663659     0.25000
C1886       C  0.42733286  0.81419088  0.12663188    -0.23200
C1887       C  0.42583746  0.78585947  0.12821387     0.19900
C1888       C  0.43231701  0.77304309  0.11022994     0.24900
C1889       C  0.44056181  0.78836882  0.09013719    -0.23100
C1890       C  0.44142995  0.81659127  0.08858123     0.19800
F1891       F  0.44880752  0.83225004  0.06964286    -0.13100
F1892       F  0.43782988  0.85723940  0.10471767    -0.15400
F1893       F  0.43143919  0.74606303  0.11279386    -0.15400
F1894       F  0.41811131  0.77055392  0.14729580    -0.13100
C1895       C  0.35470612  0.83837486  0.09618880     0.25000
C1896       C  0.33303262  0.80761764  0.09194297    -0.23200
C1897       C  0.33099217  0.78500294  0.10632369     0.19900
C1898       C  0.35123853  0.79283529  0.12363927     0.24900
C1899       C  0.37350327  0.82324965  0.12715426    -0.23100
C1900       C  0.37451825  0.84609691  0.11386075     0.19800
F1901       F  0.39520583  0.87583841  0.11776784    -0.13100
F1902       F  0.35710143  0.86095067  0.08312699    -0.15400
F1903       F  0.34916372  0.77068877  0.13703326    -0.15400
F1904       F  0.31021679  0.75505589  0.10329213    -0.13100
C1905       C  0.31881444  0.55975763  0.35074833     0.25000
C1906       C  0.32514168  0.54911157  0.33138283    -0.23200
C1907       C  0.33206534  0.56716046  0.31254325     0.19900
C1908       C  0.33394677  0.59554611  0.31335387     0.24900
C1909       C  0.32908430  0.60655192  0.33290097    -0.23100
C1910       C  0.32094578  0.58827206  0.35147358     0.19800
F1911       F  0.31582060  0.59843495  0.37049575    -0.13100
F1912       F  0.31115483  0.54294839  0.36917028    -0.15400
F1913       F  0.34074168  0.61246176  0.29503250    -0.15400
F1914       F  0.33809554  0.55798656  0.29341315    -0.13100
C1915       C  0.35324729  0.77256415  0.35724743     0.25000
C1916       C  0.34593977  0.78419331  0.33890899    -0.23200
C1917       C  0.33669195  0.76646287  0.31974736     0.19900
C1918       C  0.33421516  0.73779563  0.31913867     0.24900
C1919       C  0.34103329  0.72618474  0.33749566    -0.23100
C1920       C  0.35096859  0.74387420  0.35647236     0.19800
F1921       F  0.35788358  0.73306110  0.37438271    -0.13100
F1922       F  0.36243590  0.78882214  0.37596854    -0.15400
F1923       F  0.32481047  0.72111101  0.30060462    -0.15400
F1924       F  0.32877032  0.77618897  0.30172764    -0.13100
C1925       C  0.31924854  0.00242985  0.43846002     0.25000
C1926       C  0.30855195  0.97204284  0.43204303    -0.23200
C1927       C  0.28488132  0.94837769  0.44419590     0.19900
C1928       C  0.27119485  0.95497924  0.46141904     0.24900
C1929       C  0.28090502  0.98526243  0.46707016    -0.23100
C1930       C  0.30576565  0.50884761  0.45606739     0.19800
F1931       F  0.31592397  0.53831040  0.46159889    -0.13100
F1932       F  0.34241022  0.52582522  0.42763180    -0.15400
F1933       F  0.24777658  0.93170236  0.47226563    -0.15400
F1934       F  0.27351200  0.91870629  0.43864590    -0.13100
C1935       C  0.28481257  0.79764614  0.42546788     0.25000
C1936       C  0.28223320  0.82409153  0.42577228    -0.23200
C1937       C  0.27353449  0.83233238  0.44526384     0.19900
C1938       C  0.26774530  0.81464448  0.46386692     0.24900
C1939       C  0.27030995  0.78845498  0.46327484    -0.23100
C1940       C  0.27908439  0.78020071  0.44409360     0.19800
F1941       F  0.28184298  0.75494498  0.44340627    -0.13100
F1942       F  0.29307877  0.78857443  0.40722938    -0.15400
F1943       F  0.25901349  0.82268830  0.48236713    -0.15400
F1944       F  0.27103522  0.85769787  0.44653714    -0.13100
C1945       C  0.36819331  0.83784287  0.23895768     0.25000
C1946       C  0.36454896  0.86358289  0.24039039    -0.23200
C1947       C  0.37373901  0.88385261  0.22265461     0.19900
C1948       C  0.38701006  0.87896265  0.20437561     0.24900
C1949       C  0.39137531  0.85382487  0.20335961    -0.23100
C1950       C  0.38134856  0.83299893  0.22056729     0.19800
F1951       F  0.38380049  0.80760498  0.21939340    -0.13100
F1952       F  0.35988464  0.81772012  0.25555584    -0.15400
F1953       F  0.39590716  0.89897642  0.18766498    -0.15400
F1954       F  0.37028175  0.90870969  0.22299536    -0.13100
C1955       C  0.23340363  0.56933683  0.31745169     0.25000
C1956       C  0.21647316  0.55843576  0.33682797    -0.23200
C1957       C  0.22872097  0.57548109  0.35600951     0.19900
C1958       C  0.25753067  0.60203425  0.35591303     0.24900
C1959       C  0.27482356  0.61184145  0.33676603    -0.23100
C1960       C  0.26234529  0.59547267  0.31753447     0.19800
F1961       F  0.27831318  0.60487212  0.29872241    -0.13100
F1962       F  0.22263239  0.55411370  0.29844129    -0.15400
F1963       F  0.26892145  0.61779603  0.37464609    -0.15400
F1964       F  0.21301325  0.56633042  0.37493805    -0.13100
C1965       C  0.43403877  0.75960748  0.30836458     0.25000
C1966       C  0.45452476  0.77086005  0.32604044    -0.23200
C1967       C  0.44478238  0.75564669  0.34617363     0.19900
C1968       C  0.41529339  0.73069852  0.34861845     0.24900
C1969       C  0.39484558  0.72036053  0.33114959    -0.23100
C1970       C  0.40444334  0.73479987  0.31100182     0.19800
F1971       F  0.38512762  0.72460735  0.29378269    -0.13100
F1972       F  0.44224759  0.77292985  0.28858497    -0.15400
F1973       F  0.40656336  0.71666425  0.36814957    -0.15400
F1974       F  0.46348827  0.76510782  0.36374552    -0.13100
C1975       C  0.00169636  0.80869462  0.42986401     0.25000
C1976       C  0.03258406  0.82493591  0.42340455    -0.23200
C1977       C  0.05427669  0.82117285  0.43536085     0.19900
C1978       C  0.04524759  0.80161006  0.45318161     0.24900
C1979       C  0.01449678  0.78552894  0.45950270    -0.23100
C1980       C  0.49286245  0.78945415  0.44792401     0.19800
F1981       F  0.46308385  0.77450304  0.45412101    -0.13100
F1982       F  0.48009817  0.81167937  0.41890241    -0.15400
F1983       F  0.06664217  0.79867281  0.46448896    -0.15400
F1984       F  0.08418941  0.83569395  0.42946924    -0.13100
C1985       C  0.19007643  0.94257102  0.45906120     0.25000
C1986       C  0.21687863  0.97118151  0.45964892    -0.23200
C1987       C  0.22736580  0.98810815  0.44040754     0.19900
C1988       C  0.21093760  0.97698597  0.42104896     0.24900
C1989       C  0.18327934  0.94882648  0.42056401    -0.23100
C1990       C  0.17348006  0.93143648  0.43978242     0.19800
F1991       F  0.14692518  0.90430596  0.44034128    -0.13100
F1992       F  0.17957662  0.92562656  0.47736425    -0.15400
F1993       F  0.22172753  0.99431862  0.40293849    -0.15400
F1994       F  0.25273966  0.01619767  0.44056770    -0.13100
C1995       C  0.47281936  0.84547059  0.23387084     0.25000
C1996       C  0.48925667  0.87667360  0.23965470    -0.23200
C1997       C  0.48668598  0.89772553  0.22624260     0.19900
C1998       C  0.46781981  0.88776705  0.20785580     0.24900
C1999       C  0.45158871  0.85671171  0.20224988    -0.23100
C2000       C  0.45450878  0.83573340  0.21524861     0.19800
F2001       F  0.43925362  0.80566297  0.21003088    -0.13100
F2002       F  0.97508275  0.82428148  0.24585038    -0.15400
F2003       F  0.46568670  0.90853283  0.19528442    -0.15400
F2004       F  0.50230056  0.92796018  0.23092138    -0.13100
C2005       C  0.44244240  0.65369962  0.10661197     0.25000
C2006       C  0.46903274  0.66033664  0.09485566    -0.23200
C2007       C  0.48478117  0.64495771  0.10048648     0.19900
C2008       C  0.47382904  0.62311886  0.11706266     0.24900
C2009       C  0.44658409  0.61569077  0.12806851    -0.23100
C2010       C  0.43132971  0.63155712  0.12292715     0.19800
F2011       F  0.40579867  0.62590689  0.13398296    -0.13100
F2012       F  0.42637975  0.66777397  0.10180423    -0.15400
F2013       F  0.48960066  0.60883054  0.12216785    -0.15400
F2014       F  0.01082582  0.65104562  0.08994115    -0.13100
C2015       C  0.37409715  0.53695572  0.09030806     0.25000
C2016       C  0.34401778  0.53180255  0.09196280    -0.23200
C2017       C  0.33491538  0.53908157  0.11161716     0.19900
C2018       C  0.35528563  0.55106081  0.12909066     0.24900
C2019       C  0.38532213  0.55639108  0.12729298    -0.23100
C2020       C  0.39446475  0.54909924  0.10777093     0.19800
F2021       F  0.42297151  0.55306468  0.10575462    -0.13100
F2022       F  0.38423630  0.53109875  0.07155932    -0.15400
F2023       F  0.34571051  0.55767322  0.14781914    -0.15400
F2024       F  0.30620095  0.53446826  0.11403088    -0.13100
C2025       C  0.41350814  0.51659089  0.20768558     0.25000
C2026       C  0.40382404  0.53748882  0.20336164    -0.23200
C2027       C  0.38782198  0.54356223  0.21930988     0.19900
C2028       C  0.38200334  0.52928386  0.23953670     0.24900
C2029       C  0.39192636  0.50836647  0.24412092    -0.23100
C2030       C  0.40776469  0.50222499  0.22781267     0.19800
F2031       F  0.41744223  0.98189133  0.23110844    -0.13100
F2032       F  0.42908852  0.51051237  0.19244216    -0.15400
F2033       F  0.36626678  0.53570610  0.25443534    -0.15400
F2034       F  0.37840403  0.56387913  0.21542202    -0.13100
C2035       C  0.24127876  0.66559415  0.10603907     0.25000
C2036       C  0.21858432  0.65997709  0.09044539    -0.23200
C2037       C  0.18770162  0.63934219  0.09561121     0.19900
C2038       C  0.17986440  0.62488824  0.11576271     0.24900
C2039       C  0.20257297  0.63069766  0.13110571    -0.23100
C2040       C  0.23323644  0.65129637  0.12620953     0.19800
F2041       F  0.25547343  0.65731605  0.14096656    -0.13100
F2042       F  0.27134911  0.68497867  0.10190030    -0.15400
F2043       F  0.15007594  0.60477789  0.12021305    -0.15400
F2044       F  0.16488900  0.63348337  0.08140664    -0.13100
C2045       C  0.24836191  0.58284599  0.10720059     0.25000
C2046       C  0.22619772  0.56515644  0.09144774    -0.23200
C2047       C  0.19499852  0.55336808  0.09642389     0.19900
C2048       C  0.18630278  0.55931753  0.11643708     0.24900
C2049       C  0.20838770  0.57708708  0.13189032    -0.23100
C2050       C  0.23944709  0.58863416  0.12730464     0.19800
F2051       F  0.26110586  0.60579547  0.14220109    -0.13100
F2052       F  0.27863544  0.59457747  0.10320292    -0.15400
F2053       F  0.15615624  0.54792051  0.12074502    -0.15400
F2054       F  0.17264550  0.53517098  0.08225985    -0.13100
C2055       C  0.18635484  0.54768860  0.21840906     0.25000
C2056       C  0.16583092  0.55241627  0.20604152    -0.23200
C2057       C  0.13430731  0.53381773  0.20959109     0.19900
C2058       C  0.12342049  0.51108644  0.22549074     0.24900
C2059       C  0.14405948  0.00675935  0.23834264    -0.23100
C2060       C  0.17562212  0.52527489  0.23450265     0.19800
F2061       F  0.19644720  0.02201982  0.24637305    -0.13100
F2062       F  0.21693137  0.56508938  0.21501172    -0.15400
F2063       F  0.09277083  0.49410871  0.22870158    -0.15400
F2064       F  0.11400258  0.53735981  0.19736564    -0.13100
C2065       C  0.26132104  0.66192707  0.32027511     0.25000
C2066       C  0.28048060  0.67105543  0.33846405    -0.23200
C2067       C  0.27087285  0.67840186  0.35771909     0.19900
C2068       C  0.24199384  0.67582372  0.35890427     0.24900
C2069       C  0.22201314  0.66521279  0.34089182    -0.23100
C2070       C  0.23221898  0.65834102  0.32155565     0.19800
F2071       F  0.21406930  0.64793317  0.30374646    -0.13100
F2072       F  0.27061927  0.65568222  0.30128821    -0.15400
F2073       F  0.23384021  0.68396655  0.37761690    -0.15400
F2074       F  0.28915859  0.68737790  0.37549524    -0.13100
C2075       C  0.43446597  0.67086293  0.30928001     0.25000
C2076       C  0.44736949  0.66580867  0.32791268    -0.23200
C2077       C  0.43031766  0.65756088  0.34735888     0.19900
C2078       C  0.40173904  0.65546300  0.34830236     0.24900
C2079       C  0.38941458  0.66140211  0.32992195    -0.23100
C2080       C  0.40568366  0.66856926  0.31029205     0.19800
F2081       F  0.39386136  0.67383792  0.29218577    -0.13100
F2082       F  0.44991039  0.67866186  0.29021214    -0.15400
F2083       F  0.38638847  0.64845056  0.36740656    -0.15400
F2084       F  0.44100624  0.65100583  0.36552564    -0.13100
C2085       C  0.04565976  0.70995179  0.44437660     0.25000
C2086       C  0.02554318  0.69694005  0.42661415    -0.23200
C2087       C  0.99786466  0.69751544  0.42672252     0.19900
C2088       C  0.99109074  0.71149647  0.44376900     0.24900
C2089       C  0.01164973  0.72497998  0.46103226    -0.23100
C2090       C  0.03868925  0.72370569  0.46134237     0.19800
F2091       F  0.05859581  0.73614918  0.47811766    -0.13100
F2092       F  0.07240967  0.70980608  0.44533823    -0.15400
F2093       F  0.46433118  0.71161675  0.44354488    -0.15400
F2094       F  0.47760909  0.68523658  0.41014478    -0.13100
C2095       C  0.17868555  0.74426940  0.44005031     0.25000
C2096       C  0.17738822  0.72389549  0.42402488    -0.23200
C2097       C  0.19309403  0.70782499  0.42751417     0.19900
C2098       C  0.20973754  0.71212617  0.44651271     0.24900
C2099       C  0.21145307  0.73284964  0.46222748    -0.23100
C2100       C  0.19574929  0.74881311  0.45896642     0.19800
F2101       F  0.19713002  0.76891881  0.47409753    -0.13100
F2102       F  0.16389980  0.76013070  0.43726242    -0.15400
F2103       F  0.22481492  0.69654964  0.44937942    -0.15400
F2104       F  0.19167158  0.68719807  0.41281116    -0.13100
C2105       C  0.45757752  0.60712426  0.21931171     0.25000
C2106       C  0.46322936  0.59153216  0.20289199    -0.23200
C2107       C  0.48397292  0.58135121  0.20652771     0.19900
C2108       C  0.99900698  0.58673233  0.22646434     0.24900
C2109       C  0.49331154  0.60234778  0.24318066    -0.23100
C2110       C  0.47221745  0.61232609  0.23929957     0.19800
F2111       F  0.46620263  0.62790167  0.25457375    -0.13100
F2112       F  0.43748138  0.61704651  0.21600175    -0.15400
F2113       F  0.01913289  0.57673279  0.22930437    -0.15400
F2114       F  0.98933994  0.56580280  0.19083264    -0.13100
C2115       C  0.12782808  0.62474611  0.22267575     0.25000
C2116       C  0.14516256  0.63376810  0.24197232    -0.23200
C2117       C  0.17164217  0.63116548  0.24312873     0.19900
C2118       C  0.18035755  0.61968841  0.22562433     0.24900
C2119       C  0.16294427  0.61055985  0.20654610    -0.23100
C2120       C  0.13679366  0.61347928  0.20510914     0.19800
F2121       F  0.11979614  0.60518719  0.18669101    -0.13100
F2122       F  0.10222226  0.62687669  0.22071617    -0.15400
F2123       F  0.20631769  0.61813340  0.22713953    -0.15400
F2124       F  0.18883001  0.63894706  0.26142091    -0.13100
O2125       O  0.52713858  0.13640905  0.32938793    -0.87000
C2126       C  0.59526070  0.18869703  0.28634499     0.89000
Mg2127     Mg  0.52188927  0.15388898  0.35989140     1.58100
O2128       O  0.60510869  0.13394738  0.31512917    -0.86700
O2129       O  0.53227403  0.09939274  0.31589907    -0.74000
C2130       C  0.65770822  0.21680990  0.40473212     0.94100
O2131       O  0.55821018  0.20866340  0.32134157    -0.73900
O2132       O  0.63337790  0.21830192  0.40546202    -0.81400
Mg2133     Mg  0.53232223  0.16421719  0.30157434     1.58000
C2134       C  0.69202804  0.16387795  0.34156946     0.94000
O2135       O  0.50502482  0.12389982  0.27852335    -0.79600
H2136       H  0.59170628  0.09075924  0.32278131    -0.05000
C2137       C  0.64983093  0.22046093  0.34033726     0.89000
O2138       O  0.54588311  0.13208847  0.37797082    -0.74100
O2139       O  0.57434195  0.16503004  0.29415543    -0.86900
O2140       O  0.67783222  0.16010258  0.32380193    -0.79700
C2141       C  0.63445491  0.14281838  0.26161921     0.94100
C2142       C  0.51213397  0.11164670  0.26326814     0.94000
Mg2143     Mg  0.63699175  0.16576426  0.36670403     1.58000
O2144       O  0.66499687  0.20763633  0.38781709    -0.79600
O2145       O  0.61152728  0.12082858  0.34755022    -0.73900
O2146       O  0.60623827  0.13470482  0.26307534    -0.79700
O2147       O  0.98733939  0.16255257  0.30929809    -0.81400
O2148       O  0.56278246  0.19231780  0.40580392    -0.79700
C2149       C  0.60253323  0.11424558  0.32805156     0.88400
O2150       O  0.59467369  0.16404722  0.37416617    -0.86900
O2151       O  0.64122239  0.19304123  0.33891489    -0.87000
O2152       O  0.63711718  0.23018961  0.35330875    -0.74100
Mg2153     Mg  0.57081626  0.12106680  0.29055655     1.58000
O2154       O  0.65297186  0.15670157  0.27705021    -0.81400
H2155       H  0.50033346  0.09307178  0.33842161    -0.05200
O2156       O  0.56433759  0.19557027  0.35384149    -0.86700
H2157       H  0.57852578  0.23885146  0.34598213    -0.05000
H2158       H  0.57892070  0.12572831  0.39136773    -0.05200
C2159       C  0.56732328  0.21530416  0.34081439     0.88400
C2160       C  0.51891268  0.10905849  0.32828772     0.89000
C2161       C  0.57362281  0.14021433  0.38171790     0.89000
H2162       H  0.66833043  0.23647500  0.33015382    -0.05100
O2163       O  0.62301356  0.19713810  0.29022790    -0.74200
Mg2164     Mg  0.59850772  0.20775997  0.37866756     1.58000
H2165       H  0.58981593  0.20283608  0.27641114    -0.05100
C2166       C  0.97729726  0.16681317  0.32709281     0.94000
O2167       O  0.51652575  0.17351675  0.39156638    -0.81400
C2168       C  0.53517790  0.18633260  0.40711718     0.94100
O2169       O  0.53594854  0.10931786  0.26425316    -0.81400
Mg2170     Mg  0.64711078  0.17587811  0.30864454     1.58200
O2171       O  0.49144500  0.17028410  0.34486270    -0.79700
O2172       O  0.68193778  0.16829930  0.35921267    -0.81400
C2173       C  0.67388063  0.10080670  0.18749901     0.03600
C2174       C  0.67731026  0.07470649  0.18795394     0.03600
C2175       C  0.69000556  0.06808018  0.16997560    -0.16900
C2176       C  0.69863986  0.08644228  0.15151856     0.03600
C2177       C  0.69462459  0.11191825  0.15083677     0.03600
C2178       C  0.68246261  0.11902362  0.16880007    -0.16900
H2179       H  0.67988957  0.13896948  0.16827466     0.05700
H2180       H  0.69208957  0.04783478  0.17001756     0.05700
C2181       C  0.91497450  0.05642270  0.18354043     0.03600
C2182       C  0.94441096  0.08227686  0.18310509     0.03600
C2183       C  0.95461043  0.10047983  0.16455075    -0.16900
C2184       C  0.93576854  0.09339555  0.14618718     0.03600
C2185       C  0.90623976  0.06677640  0.14639177     0.03600
C2186       C  0.89628531  0.04867835  0.16519531    -0.16900
H2187       H  0.87390544  0.02830115  0.16552521     0.05700
H2188       H  0.97693362  0.12094458  0.16472375     0.05700
O2189       O  0.64432474  0.44671646  0.33555833    -0.87000
C2190       C  0.57474893  0.42652511  0.37761801     0.89000
Mg2191     Mg  0.64726333  0.46762350  0.30482174     1.58100
O2192       O  0.57040848  0.36397733  0.34945181    -0.86700
O2193       O  0.64300193  0.40619678  0.34862925    -0.74000
C2194       C  0.51058075  0.38679539  0.25849100     0.94100
O2195       O  0.60792942  0.48265038  0.34283634    -0.73900
O2196       O  0.53314570  0.41399381  0.25912185    -0.81400
Mg2197     Mg  0.63687798  0.46836199  0.36318715     1.58000
C2198       C  0.98419251  0.30007785  0.32426802     0.94000
O2199       O  0.66673432  0.45951802  0.38721063    -0.79600
H2200       H  0.58680034  0.33649348  0.34209342    -0.05000
C2201       C  0.51868091  0.39760579  0.32324482     0.89000
O2202       O  0.62595721  0.42132776  0.28724271    -0.74100
O2203       O  0.59722856  0.42554838  0.37084054    -0.86900
O2204       O  0.49943843  0.31164368  0.34152415    -0.79700
C2205       C  0.54206927  0.34331771  0.40328477     0.94100
C2206       C  0.66275205  0.43942401  0.40125230     0.94000
Mg2207     Mg  0.53603784  0.35835058  0.29715674     1.58000
O2208       O  0.50661390  0.36743601  0.27312782    -0.79600
O2209       O  0.56451789  0.34340014  0.31736984    -0.73900
O2210       O  0.56995134  0.36406235  0.40131112    -0.79700
O2211       O  0.67916991  0.01371854  0.35507540    -0.81400
O2212       O  0.60470330  0.46456931  0.25818251    -0.79700
C2213       C  0.57427919  0.34738792  0.33673886     0.88400
O2214       O  0.57627975  0.40111417  0.28888235    -0.86900
O2215       O  0.52943335  0.38059319  0.32466452    -0.87000
O2216       O  0.53024824  0.42036953  0.31062823    -0.74100
Mg2217     Mg  0.60465113  0.38731998  0.37395427     1.58000
O2218       O  0.52292880  0.33710868  0.38802618    -0.81400
H2219       H  0.67406939  0.43383789  0.32636882    -0.05200
O2220       O  0.60296918  0.46307234  0.31044317    -0.86700
H2221       H  0.58552063  0.48952486  0.31818723    -0.05000
H2222       H  0.59598556  0.38101912  0.27311216    -0.05200
C2223       C  0.59843381  0.47897867  0.32339681     0.88400
C2224       C  0.65486206  0.42947847  0.33652441     0.89000
C2225       C  0.59905282  0.40037734  0.28249449     0.89000
H2226       H  0.49940598  0.39338591  0.33326980    -0.05100
O2227       O  0.54768043  0.40588474  0.37302088    -0.74200
Mg2228     Mg  0.56901008  0.43959637  0.28542382     1.58000
H2229       H  0.57824213  0.44594683  0.38711180    -0.05100
C2230       C  0.68828150  0.02800083  0.33723852     0.94000
O2231       O  0.65097420  0.49061016  0.27290823    -0.81400
C2232       C  0.63271559  0.48563419  0.25727880     0.94100
O2233       O  0.64043082  0.41225427  0.39990361    -0.81400
Mg2234     Mg  0.52645434  0.35969514  0.35563189     1.58200
O2235       O  0.67509750  0.01584682  0.31938678    -0.79700
O2236       O  0.99264151  0.31410552  0.30626064    -0.81400
O2237       O  0.81147608  0.35994642  0.34090691    -0.87000
C2238       C  0.86651430  0.43047952  0.38216506     0.89000
Mg2239     Mg  0.82672818  0.35574707  0.30938722     1.58100
O2240       O  0.80741966  0.43718372  0.35766052    -0.86700
O2241       O  0.77514000  0.36498094  0.35610116    -0.74000
C2242       C  0.88263263  0.49030971  0.26451905     0.94100
O2243       O  0.88557253  0.39355052  0.34589025    -0.73900
O2244       O  0.88668399  0.46769634  0.26604047    -0.81400
Mg2245     Mg  0.84297246  0.36728341  0.36704884     1.58000
C2246       C  0.82749038  0.02112926  0.33119209     0.94000
O2247       O  0.80530269  0.33934776  0.39127705    -0.79600
H2248       H  0.76294122  0.42181990  0.35276236    -0.05000
C2249       C  0.89106492  0.48455369  0.32969701     0.89000
O2250       O  0.80219915  0.37856935  0.29353301    -0.74100
O2251       O  0.84268376  0.40859180  0.37516988    -0.86900
O2252       O  0.82809844  0.50916602  0.34934487    -0.79700
C2253       C  0.81909485  0.46462163  0.41160576     0.94100
C2254       C  0.79207091  0.34462760  0.40680108     0.94000
Mg2255     Mg  0.83217917  0.46834579  0.30501691     1.58000
O2256       O  0.86894848  0.49638139  0.27935850    -0.79600
O2257       O  0.78987489  0.44181967  0.32655087    -0.73900
O2258       O  0.81516082  0.43795019  0.40931621    -0.79700
O2259       O  0.84286559  0.32351334  0.35835054    -0.81400
O2260       O  0.86088165  0.39869364  0.26376866    -0.79700
C2261       C  0.78584193  0.43335322  0.34615920     0.88400
O2262       O  0.83288787  0.42752924  0.29735884    -0.86900
O2263       O  0.86371139  0.47657736  0.33151058    -0.87000
O2264       O  0.90006898  0.47092211  0.31700872    -0.74100
Mg2265     Mg  0.79833859  0.40316811  0.38149718     1.58000
O2266       O  0.82957458  0.48392398  0.39625206    -0.81400
H2267       H  0.76738832  0.33301691  0.33327740    -0.05200
O2268       O  0.86766849  0.39870775  0.31512609    -0.86700
H2269       H  0.91210417  0.41332989  0.31947943    -0.05000
H2270       H  0.79303471  0.41039287  0.28164294    -0.05200
C2271       C  0.88934592  0.40208217  0.32631289     0.88400
C2272       C  0.78408932  0.35162009  0.34310235     0.89000
C2273       C  0.80892286  0.40592206  0.29032918     0.89000
H2274       H  0.90766516  0.50303216  0.33965085    -0.05100
O2275       O  0.87266531  0.45774676  0.37913318    -0.74200
Mg2276     Mg  0.87720924  0.43291541  0.29153055     1.58000
H2277       H  0.88266681  0.42636242  0.39080966    -0.05100
C2278       C  0.84551554  0.31329324  0.34010848     0.94000
O2279       O  0.84444117  0.35217274  0.27640935    -0.81400
C2280       C  0.85544361  0.37157815  0.26118419     0.94100
O2281       O  0.78898374  0.36793481  0.40692151    -0.81400
Mg2282     Mg  0.84786785  0.48047764  0.36312108     1.58200
O2283       O  0.84560012  0.32621975  0.32243355    -0.79700
O2284       O  0.83108620  0.01092580  0.31328016    -0.81400
C2285       C  0.90356042  0.34767044  0.18338990     0.03600
C2286       C  0.93071512  0.34619243  0.18317483     0.03600
C2287       C  0.93826698  0.33537208  0.16444975    -0.16900
C2288       C  0.91980024  0.32731052  0.14572415     0.03600
C2289       C  0.89404290  0.33127789  0.14580336     0.03600
C2290       C  0.88608710  0.34102832  0.16456668    -0.16900
H2291       H  0.86532224  0.34234461  0.16474685     0.05700
H2292       H  0.95863708  0.33340428  0.16440617     0.05700
O2293       O  0.72308368  0.02890630  0.00546057    -0.87000
C2294       C  0.73728266  0.47642838  0.04879173     0.89000
Mg2295     Mg  0.69959214  0.01114162  0.97532880     1.58100
O2296       O  0.80200703  0.02909157  0.01894061    -0.86700
O2297       O  0.76609839  0.06568179  0.01834561    -0.74000
C2298       C  0.76589402  0.44273099  0.93037071     0.94100
O2299       O  0.67910735  0.45728607  0.01479910    -0.73900
O2300       O  0.74041275  0.44189051  0.93112245    -0.81400
Mg2301     Mg  0.70013452  0.50252352  0.03369651     1.58000
C2302       C  0.85734928  0.99688896  0.99311332     0.94000
O2303       O  0.71523380  0.04374932  0.05596482    -0.79600
H2304       H  0.83281113  0.07163617  0.01027702    -0.05000
C2305       C  0.75720510  0.44166621  0.99567790     0.89000
O2306       O  0.74507943  0.03070114  0.95678622    -0.74100
O2307       O  0.74064382  0.50021483  0.04085790    -0.86900
O2308       O  0.84781643  0.00292444  0.01043855    -0.79700
C2309       C  0.82370570  0.02204340  0.07259445     0.94100
C2310       C  0.73474653  0.05531750  0.07123269     0.94000
Mg2311     Mg  0.80010653  0.99447566  0.96786278     1.58000
O2312       O  0.78408110  0.45210870  0.94648595    -0.79600
O2313       O  0.82142032  0.04017905  0.98634342    -0.73900
O2314       O  0.80318747  0.02950499  0.07131868    -0.79700
O2315       O  0.65758849  0.50555134  0.02607577    -0.81400
O2316       O  0.69750145  0.46879426  0.93002521    -0.79700
C2317       C  0.81939380  0.04793958  0.00558770     0.88400
O2318       O  0.75994701  0.99741028  0.96065487    -0.86900
O2319       O  0.77726173  0.46881622  0.99629342    -0.87000
O2320       O  0.73413137  0.43227996  0.98328433    -0.74100
Mg2321     Mg  0.78217842  0.04356122  0.04371272     1.58000
O2322       O  0.82809495  0.00797834  0.05721889    -0.81400
H2323       H  0.74054136  0.07211097  0.99590864    -0.05200
O2324       O  0.69829253  0.46896879  0.98219826    -0.86700
H2325       H  0.66735919  0.42632602  0.99049544    -0.05000
H2326       H  0.78350226  0.03508099  0.94290385    -0.05200
C2327       C  0.68087356  0.44991633  0.99541021     0.88400
C2328       C  0.74282105  0.05614814  0.00617616     0.89000
C2329       C  0.76366664  0.02140104  0.95287517     0.89000
H2330       H  0.75909844  0.42563701  0.00612565    -0.05100
O2331       O  0.75614687  0.46743005  0.04498769    -0.74200
Mg2332     Mg  0.71830075  0.45445870  0.95761779     1.58000
H2333       H  0.71756529  0.46269512  0.05884750    -0.05100
C2334       C  0.64308230  0.50104903  0.00834423     0.94000
O2335       O  0.67370323  0.49157344  0.94406152    -0.81400
C2336       C  0.67760022  0.47709002  0.92875277     0.94100
O2337       O  0.76049429  0.05673969  0.07016897    -0.81400
Mg2338     Mg  0.80143938  0.48733869  0.02617400     1.58200
O2339       O  0.65353629  0.49722924  0.99060980    -0.79700
O2340       O  0.84207996  0.99064200  0.97561288    -0.81400
O2341       O  0.78248764  0.30685644  0.99132171    -0.87000
C2342       C  0.76757024  0.23559894  0.95203619     0.89000
Mg2343     Mg  0.80150844  0.31175811  0.02294570     1.58100
O2344       O  0.70216812  0.22897972  0.97735215    -0.86700
O2345       O  0.74086050  0.30139674  0.97649388    -0.74000
C2346       C  0.72636630  0.17799799  0.07004505     0.94100
O2347       O  0.82384355  0.27454717  0.98750936    -0.73900
O2348       O  0.75287911  0.20114112  0.06836176    -0.81400
Mg2349     Mg  0.80712337  0.29948841  0.96549935     1.58000
C2350       C  0.63833705  0.14482314  0.00440275     0.94000
O2351       O  0.79702683  0.32574522  0.93972617    -0.79600
H2352       H  0.67252512  0.24361726  0.98197290    -0.05000
C2353       C  0.73893269  0.18267440  0.00548476     0.89000
O2354       O  0.75403400  0.28858268  0.03879356    -0.74100
O2355       O  0.76553892  0.25772494  0.95813623    -0.86900
O2356       O  0.65081888  0.15728383  0.98648578    -0.79700
C2357       C  0.68468407  0.19897860  0.92438767     0.94100
C2358       C  0.77694770  0.31963934  0.92512627     0.94000
Mg2359     Mg  0.69582236  0.19824116  0.03004176     1.58000
O2360       O  0.70605020  0.17152351  0.05556142    -0.79600
O2361       O  0.67927638  0.22377111  0.00827559    -0.73900
O2362       O  0.70741490  0.22591570  0.92559324    -0.79700
O2363       O  0.85073055  0.34364339  0.97399676    -0.81400
O2364       O  0.79426114  0.27070067  0.06932642    -0.79700
C2365       C  0.68405976  0.23244219  0.98870388     0.88400
O2366       O  0.73700456  0.23962189  0.03700677    -0.86900
O2367       O  0.71949330  0.19046885  0.00378059    -0.87000
O2368       O  0.76209020  0.19696651  0.01767223    -0.74100
Mg2369     Mg  0.72576047  0.26195058  0.95240710     1.58000
O2370       O  0.67688186  0.18089117  0.94033941    -0.81400
H2371       H  0.76638410  0.33472159  0.99818644    -0.05200
O2372       O  0.80013638  0.26917460  0.01806092    -0.86700
H2373       H  0.83079983  0.25566762  0.01426353    -0.05000
H2374       H  0.71359760  0.25666770  0.05170128    -0.05200
C2375       C  0.81892948  0.26625676  0.00713684     0.88400
C2376       C  0.76375822  0.31543366  0.98893058     0.89000
C2377       C  0.73408183  0.26122674  0.04307274     0.89000
H2378       H  0.73669991  0.16388294  0.99579916    -0.05100
O2379       O  0.74675717  0.20842787  0.95611704    -0.74200
Mg2380     Mg  0.77682381  0.23566487  0.04236411     1.58000
H2381       H  0.78776738  0.23945694  0.94333049    -0.05100
C2382       C  0.86328009  0.35340378  0.99241819     0.94000
O2383       O  0.82282472  0.31712390  0.05598938    -0.81400
C2384       C  0.81518464  0.29829114  0.07149824     0.94100
O2385       O  0.75035694  0.29637854  0.92622725    -0.81400
Mg2386     Mg  0.69934847  0.18575233  0.97261274     1.58200
O2387       O  0.84968944  0.34051053  0.00989602    -0.79700
O2388       O  0.65228591  0.15477213  0.02230655    -0.81400
O2389       O  0.52414170  0.21618857  0.99502339    -0.87000
C2390       C  0.97231537  0.23326418  0.95260250     0.89000
Mg2391     Mg  0.50827823  0.19645949  0.02671922     1.58100
O2392       O  0.53184399  0.29776019  0.97886169    -0.86700
O2393       O  0.56235645  0.25550170  0.97955860    -0.74000
C2394       C  0.95126209  0.27680475  0.07169268     0.94100
O2395       O  0.95139161  0.17871299  0.98970022    -0.73900
O2396       O  0.94740364  0.24995581  0.07215359    -0.81400
Mg2397     Mg  0.99371427  0.19265195  0.96828549     1.58000
C2398       C  0.50954873  0.36158394  0.00530735     0.94000
O2399       O  0.53104502  0.20049853  0.94337955    -0.79600
H2400       H  0.57603398  0.32486478  0.98610485    -0.05000
C2401       C  0.94668054  0.26250257  0.00731114     0.89000
O2402       O  0.53331983  0.24342391  0.04313025    -0.74100
O2403       O  0.99608813  0.23482949  0.95921805    -0.86900
O2404       O  0.51025273  0.34930800  0.98743014    -0.79700
C2405       C  0.52229125  0.31746343  0.92541011     0.94100
C2406       C  0.54611967  0.21899579  0.92816915     0.94000
Mg2407     Mg  0.50436915  0.30365317  0.03217403     1.58000
O2408       O  0.96608882  0.29517246  0.05636900    -0.79600
O2409       O  0.54712967  0.31791652  0.01109691    -0.73900
O2410       O  0.53000225  0.29708554  0.92678708    -0.79700
O2411       O  0.99220603  0.14843408  0.97757332    -0.81400
O2412       O  0.96984750  0.20033263  0.07385728    -0.79700
C2413       C  0.55257772  0.31409093  0.99158383     0.88400
O2414       O  0.50253682  0.26182797  0.04120009    -0.86900
O2415       O  0.97439290  0.28024453  0.00522052    -0.87000
O2416       O  0.93644177  0.24055975  0.02066326    -0.74100
Mg2417     Mg  0.54172189  0.27325616  0.95423030     1.58000
O2418       O  0.50885856  0.32260695  0.94090843    -0.81400
H2419       H  0.56762333  0.23004989  0.00261673    -0.05200
O2420       O  0.96717497  0.19893588  0.02184754    -0.86700
H2421       H  0.92289105  0.17174063  0.01495516    -0.05000
H2422       H  0.54276673  0.28378927  0.05651966    -0.05200
C2423       C  0.94625905  0.18251981  0.00928393     0.88400
C2424       C  0.55190124  0.23343644  0.99278556     0.89000
C2425       C  0.52660320  0.26378727  0.04755757     0.89000
H2426       H  0.93080315  0.26539913  0.99729009    -0.05100
O2427       O  0.96592239  0.25388925  0.95690697    -0.74200
Mg2428     Mg  0.95723030  0.22327929  0.04630543     1.58000
H2429       H  0.95617444  0.21345533  0.94345994    -0.05100
C2430       C  0.98878146  0.13518924  0.99570247     0.94000
O2431       O  0.99119703  0.17502461  0.05976666    -0.81400
C2432       C  0.97798547  0.18028444  0.07534695     0.94100
O2433       O  0.55104491  0.24626794  0.92817968    -0.81400
Mg2434     Mg  0.99087133  0.30064336  0.97372116     1.58200
O2435       O  0.98839323  0.14793705  0.01339892    -0.79700
O2436       O  0.50575959  0.34776381  0.02319987    -0.81400
O2437       O  0.64166938  0.02547048  0.67161650    -0.87000
C2438       C  0.69653220  0.09815428  0.71065908     0.89000
Mg2439     Mg  0.65663375  0.02122595  0.63988017     1.58100
O2440       O  0.63634127  0.10193297  0.68510197    -0.86700
O2441       O  0.60456372  0.02964455  0.68621582    -0.74000
C2442       C  0.71206478  0.15518259  0.59388496     0.94100
O2443       O  0.71564587  0.05985583  0.67552533    -0.73900
O2444       O  0.71618252  0.13255301  0.59481845    -0.81400
Mg2445     Mg  0.67385466  0.03419737  0.69764498     1.58000
C2446       C  0.65543870  0.18661874  0.65864396     0.94000
O2447       O  0.63791520  0.00749163  0.72422080    -0.79600
H2448       H  0.59164643  0.08602309  0.68066614    -0.05000
C2449       C  0.71962621  0.15076186  0.65791199     0.89000
O2450       O  0.63135047  0.04325698  0.62402674    -0.74100
O2451       O  0.67284102  0.07536224  0.70441982    -0.86900
O2452       O  0.65433467  0.17335238  0.67640236    -0.79700
C2453       C  0.64646324  0.13056850  0.73816371     0.94100
C2454       C  0.62355953  0.01340920  0.73865557     0.94000
Mg2455     Mg  0.66079772  0.13354739  0.63312622     1.58000
O2456       O  0.69844845  0.16109084  0.60879815    -0.79600
O2457       O  0.61813594  0.10685594  0.65439334    -0.73900
O2458       O  0.64637407  0.10556267  0.73683338    -0.79700
O2459       O  0.67394069  0.49057828  0.68945415    -0.81400
O2460       O  0.69157694  0.06309603  0.59331876    -0.79700
C2461       C  0.61443461  0.09787709  0.67388191     0.88400
O2462       O  0.66194957  0.09257809  0.62602785    -0.86900
O2463       O  0.69216607  0.14237704  0.65952295    -0.87000
O2464       O  0.72901085  0.13699906  0.64569282    -0.74100
Mg2465     Mg  0.62815099  0.06944751  0.71021983     1.58000
O2466       O  0.65549190  0.14908866  0.72242493    -0.81400
H2467       H  0.59773855  0.99653085  0.66466487    -0.05200
O2468       O  0.69729081  0.06466892  0.64485881    -0.86700
H2469       H  0.74179366  0.07936859  0.64890301    -0.05000
H2470       H  0.62126185  0.07401356  0.61132582    -0.05200
C2471       C  0.71914041  0.06823116  0.65591404     0.88400
C2472       C  0.61409012  0.01611377  0.67390418     0.89000
C2473       C  0.63774809  0.07032595  0.61991339     0.89000
H2474       H  0.73597737  0.16969888  0.66766113    -0.05100
O2475       O  0.70155041  0.12493824  0.70698918    -0.74200
Mg2476     Mg  0.70670199  0.09820642  0.62069320     1.58000
H2477       H  0.71350698  0.09526639  0.71927579    -0.05100
C2478       C  0.67678710  0.48044560  0.67121331     0.94000
O2479       O  0.67296729  0.01643706  0.60635774    -0.81400
C2480       C  0.68433195  0.03537660  0.59084583     0.94100
O2481       O  0.61923876  0.03585621  0.73680605    -0.81400
Mg2482     Mg  0.67546855  0.14606566  0.69045313     1.58200
O2483       O  0.67708807  0.99335869  0.65332205    -0.79700
O2484       O  0.65995631  0.17707059  0.64071902    -0.81400
C2485       C  0.57782465  0.17255258  0.85204641     0.03600
C2486       C  0.60389948  0.16923877  0.85127616     0.03600
C2487       C  0.61164344  0.16016018  0.83210051    -0.16900
C2488       C  0.59378559  0.15392292  0.81353232     0.03600
C2489       C  0.56683041  0.15566692  0.81424045     0.03600
C2490       C  0.55913618  0.16520278  0.83351607    -0.16900
H2491       H  0.53870748  0.16705138  0.83405738     0.05700
H2492       H  0.63223696  0.15855182  0.83149764     0.05700
C2493       C  0.56554991  0.40555954  0.85513000     0.03600
C2494       C  0.59451045  0.43290810  0.85541417     0.03600
C2495       C  0.60406759  0.45184260  0.83702370    -0.16900
C2496       C  0.58578126  0.44424011  0.81846587     0.03600
C2497       C  0.55708900  0.41728475  0.81819928     0.03600
C2498       C  0.54709851  0.39842423  0.83649891    -0.16900
H2499       H  0.52526697  0.37740040  0.83589840     0.05700
H2500       H  0.62597692  0.47280776  0.83714912     0.05700
O2501       O  0.96608304  0.12419446  0.67406796    -0.87000
C2502       C  0.89651057  0.10417630  0.71647770     0.89000
Mg2503     Mg  0.96883077  0.14443007  0.64298434     1.58100
O2504       O  0.89289814  0.04151114  0.68865509    -0.86700
O2505       O  0.96560268  0.08452016  0.68787996    -0.74000
C2506       C  0.83180532  0.06282613  0.59876798     0.94100
O2507       O  0.93116110  0.16160716  0.68116678    -0.73900
O2508       O  0.85400716  0.09012960  0.59937169    -0.81400
Mg2509     Mg  0.95957228  0.14659106  0.70145885     1.58000
C2510       C  0.80824916  0.47530100  0.66231173     0.94000
O2511       O  0.98912522  0.13785856  0.72556442    -0.79600
H2512       H  0.91058536  0.01515164  0.68126387    -0.05000
C2513       C  0.84028417  0.07417857  0.66325269     0.89000
O2514       O  0.94731229  0.09793093  0.62613567    -0.74100
O2515       O  0.91934324  0.10380602  0.70976434    -0.86900
O2516       O  0.82099571  0.48757779  0.68027551    -0.79700
C2517       C  0.86499590  0.01992972  0.74218631     0.94100
C2518       C  0.98555401  0.11825683  0.73986114     0.94000
Mg2519     Mg  0.85858142  0.03550474  0.63666209     1.58000
O2520       O  0.82806755  0.04381304  0.61355980    -0.79600
O2521       O  0.88797100  0.02145894  0.65649546    -0.73900
O2522       O  0.89255828  0.04167488  0.74072401    -0.79700
O2523       O  0.50317666  0.18998278  0.69213782    -0.81400
O2524       O  0.92417940  0.13876141  0.59782550    -0.79700
C2525       C  0.89751033  0.02545907  0.67590909     0.88400
O2526       O  0.89785938  0.07833121  0.62887114    -0.86900
O2527       O  0.85077492  0.05688481  0.66423752    -0.87000
O2528       O  0.85195421  0.09728561  0.65094923    -0.74100
Mg2529     Mg  0.92714855  0.06561300  0.71319402     1.58000
O2530       O  0.84587095  0.01359787  0.72691203    -0.81400
H2531       H  0.99640054  0.11185110  0.66535313    -0.05200
O2532       O  0.92480584  0.14040117  0.64929303    -0.86700
H2533       H  0.90875109  0.16824855  0.65639323    -0.05000
H2534       H  0.91645001  0.05763297  0.61250801    -0.05200
C2535       C  0.92119138  0.15731506  0.66184525     0.88400
C2536       C  0.97708111  0.10740611  0.67541062     0.89000
C2537       C  0.92016284  0.07723580  0.62187005     0.89000
H2538       H  0.82125158  0.07000241  0.67353685    -0.05100
O2539       O  0.86962725  0.08269532  0.71225785    -0.74200
Mg2540     Mg  0.88993716  0.11606933  0.62525254     1.58000
H2541       H  0.89946771  0.12355752  0.72577691    -0.05100
C2542       C  0.51249817  0.20361342  0.67407078     0.94000
O2543       O  0.97193147  0.16563677  0.61008373    -0.81400
C2544       C  0.95218023  0.15870579  0.59514324     0.94100
O2545       O  0.96303597  0.09112947  0.73907357    -0.81400
Mg2546     Mg  0.84841840  0.03616677  0.69489713     1.58200
O2547       O  0.99681041  0.19293562  0.65679917    -0.79700
O2548       O  0.81735687  0.48987840  0.64460672    -0.81400
O2549       O  0.85846122  0.30718407  0.66136769    -0.87000
C2550       C  0.92795042  0.35883704  0.61909834     0.89000
Mg2551     Mg  0.85319185  0.32513304  0.69158979     1.58100
O2552       O  0.93486105  0.30262813  0.64783496    -0.86700
O2553       O  0.86227450  0.26944044  0.64784631    -0.74000
C2554       C  0.98816817  0.38718589  0.73819635     0.94100
O2555       O  0.89011640  0.37966340  0.65302447    -0.73900
O2556       O  0.96455574  0.38987250  0.73696282    -0.81400
Mg2557     Mg  0.86422061  0.33509033  0.63348922     1.58000
C2558       C  0.52123069  0.32959402  0.67477590     0.94000
O2559       O  0.83651347  0.29478384  0.61081181    -0.79600
H2560       H  0.91992699  0.25924078  0.65585902    -0.05000
C2561       C  0.98187768  0.38899587  0.67282735     0.89000
O2562       O  0.87629622  0.30292682  0.71029405    -0.74100
O2563       O  0.90618775  0.33539788  0.62655103    -0.86900
O2564       O  0.00596930  0.32420350  0.65733414    -0.79700
C2565       C  0.96424215  0.31064697  0.59404862     0.94100
C2566       C  0.84310675  0.28240603  0.59539940     0.94000
Mg2567     Mg  0.96724346  0.33409554  0.69999886     1.58000
O2568       O  0.99497454  0.37438543  0.72314414    -0.79600
O2569       O  0.94082637  0.28951884  0.68037495    -0.73900
O2570       O  0.93676251  0.30492528  0.59564093    -0.79700
O2571       O  0.81919438  0.33328925  0.64077963    -0.81400
O2572       O  0.89412700  0.36593517  0.73738866    -0.79700
C2573       C  0.93150892  0.28283388  0.66093907     0.88400
O2574       O  0.92539917  0.33403018  0.70712618    -0.86900
O2575       O  0.97311159  0.36151458  0.67188389    -0.87000
O2576       O  0.96887388  0.39918891  0.68510129    -0.74100
Mg2577     Mg  0.90124800  0.29089362  0.62281895     1.58000
O2578       O  0.98299714  0.32258999  0.60969913    -0.81400
H2579       H  0.83053097  0.26399236  0.67028690    -0.05200
O2580       O  0.89607719  0.36613204  0.68536472    -0.86700
H2581       H  0.91034167  0.40953921  0.67784648    -0.05000
H2582       H  0.90833210  0.29576017  0.72451898    -0.05200
C2583       C  0.89914532  0.38606174  0.67251307     0.88400
C2584       C  0.84942270  0.27965789  0.66023431     0.89000
C2585       C  0.90376955  0.31050981  0.71455631     0.89000
H2586       H  0.00068193  0.40465427  0.66270946    -0.05100
O2587       O  0.95540476  0.36596304  0.62305222    -0.74200
Mg2588     Mg  0.92995765  0.37849224  0.71027508     1.58000
H2589       H  0.92354396  0.37383781  0.60930515    -0.05100
C2590       C  0.80904858  0.33775385  0.65842863     0.94000
O2591       O  0.84781859  0.34546630  0.72280159    -0.81400
C2592       C  0.86625605  0.35929390  0.73827004     0.94100
O2593       O  0.86686092  0.27994114  0.59604656    -0.81400
Mg2594     Mg  0.97796708  0.34298626  0.64155914     1.58200
O2595       O  0.82351604  0.34215254  0.67615368    -0.79700
O2596       O  0.51207603  0.33558600  0.69232054    -0.81400
C2597       C  0.80741394  0.41995524  0.84898214     0.03600
C2598       C  0.80939261  0.39328794  0.84804255     0.03600
C2599       C  0.81994911  0.38631943  0.82921336    -0.16900
C2600       C  0.82868344  0.40545939  0.81103500     0.03600
C2601       C  0.82629040  0.43219997  0.81183022     0.03600
C2602       C  0.81545427  0.43893392  0.83084989    -0.16900
H2603       H  0.81416515  0.45959540  0.83179436     0.05700
H2604       H  0.82117523  0.36559970  0.82867714     0.05700
C2605       C  0.50489961  0.26610905  0.47913614     0.03600
C2606       C  0.50358528  0.23766697  0.47978676     0.03600
C2607       C  0.49561866  0.22116141  0.49914427    -0.16900
C2608       C  0.98914453  0.23245551  0.51792634     0.03600
C2609       C  0.99092599  0.26121735  0.51747318     0.03600
C2610       C  0.49849050  0.27748631  0.49793316    -0.16900
H2611       H  0.50009015  0.29959828  0.49745526     0.05700
H2612       H  0.49428689  0.19915991  0.49955909     0.05700
C2613       C  0.76011422  0.26771360  0.48197775     0.03600
C2614       C  0.73190904  0.24017191  0.48122841     0.03600
C2615       C  0.72378969  0.21931008  0.49817509    -0.16900
C2616       C  0.74311270  0.22605381  0.51611415     0.03600
C2617       C  0.77078543  0.25421259  0.51727386     0.03600
C2618       C  0.77931284  0.27469039  0.50000481    -0.16900
H2619       H  0.80075154  0.29611577  0.50064913     0.05700
H2620       H  0.70225474  0.19797535  0.49753590     0.05700
C2621       C  0.73293218  0.48388859  0.48061709     0.03600
C2622       C  0.76387153  0.49194452  0.48374421     0.03600
C2623       C  0.77852653  0.50564565  0.50331141    -0.16900
C2624       C  0.76289608  0.01120245  0.51990982     0.03600
C2625       C  0.73193557  0.00283377  0.51689335     0.03600
C2626       C  0.71725546  0.48913182  0.49740503    -0.16900
H2627       H  0.69372717  0.48341137  0.49498811     0.05700
H2628       H  0.80213029  0.51163969  0.50576559     0.05700
C2629       C  0.49726565  0.02528479  0.99940813     0.03600
C2630       C  0.52640782  0.02839972  0.00229371     0.03600
C2631       C  0.52940661  0.50223455  0.00400992     0.03600
C2632       C  0.50332512  0.47292002  0.00230197     0.03600
C2633       C  0.97430498  0.46992372  0.99904879     0.03600
C2634       C  0.97125171  0.49606674  0.99786994     0.03600
C2635       C  0.83803003  0.19556371  0.33665579     0.03600
C2636       C  0.86419631  0.19277726  0.33341644     0.03600
C2637       C  0.86129906  0.16364466  0.33196298     0.03600
C2638       C  0.83214748  0.13719258  0.33380263     0.03600
C2639       C  0.80583885  0.13985828  0.33652006     0.03600
C2640       C  0.80877812  0.16905493  0.33781274     0.03600
C2641       C  0.63860981  0.33561106  0.66950270     0.03600
C2642       C  0.66760862  0.36226433  0.66814070     0.03600
C2643       C  0.69402706  0.35997026  0.66481406     0.03600
C2644       C  0.69142666  0.33100534  0.66268063     0.03600
C2645       C  0.66236900  0.30418189  0.66431000     0.03600
C2646       C  0.63603324  0.30659790  0.66803326     0.03600
C2647       C  0.56262008  0.32704600  0.65389268     0.25000
C2648       C  0.55123195  0.33064250  0.67393432    -0.23200
C2649       C  0.57016333  0.33802574  0.69242874     0.19900
C2650       C  0.59938033  0.34136626  0.69085570     0.24900
C2651       C  0.61017093  0.33737102  0.67087873    -0.23100
C2652       C  0.59173598  0.33059881  0.65243766     0.19800
F2653       F  0.60174367  0.32661471  0.63296014    -0.13100
F2654       F  0.54575558  0.32016008  0.63546635    -0.15400
F2655       F  0.61678770  0.34755798  0.70894720    -0.15400
F2656       F  0.56050119  0.34190983  0.71207225    -0.13100
C2657       C  0.76254542  0.32961264  0.67879670     0.25000
C2658       C  0.77870704  0.33586542  0.65901785    -0.23200
C2659       C  0.76447054  0.33798339  0.63998379     0.19900
C2660       C  0.73540598  0.33507949  0.64092116     0.24900
C2661       C  0.71984535  0.32939236  0.66075923    -0.23100
C2662       C  0.73345009  0.32630026  0.67956509     0.19800
F2663       F  0.71884648  0.32103251  0.69890189    -0.13100
F2664       F  0.77458537  0.32618497  0.69750929    -0.15400
F2665       F  0.72269093  0.33844993  0.62254623    -0.15400
F2666       F  0.77881450  0.34340577  0.62053746    -0.13100
C2667       C  0.86393118  0.39027959  0.79393223     0.25000
C2668       C  0.83952825  0.39594031  0.79175831    -0.23200
C2669       C  0.82337929  0.38867956  0.77210433     0.19900
C2670       C  0.83141690  0.37588665  0.75496428     0.24900
C2671       C  0.85582459  0.37003559  0.75714904    -0.23100
C2672       C  0.87202203  0.37753643  0.77687035     0.19800
F2673       F  0.89554549  0.37222369  0.77981107    -0.13100
F2674       F  0.87986744  0.39693868  0.81279079    -0.15400
F2675       F  0.81565350  0.36987730  0.73607078    -0.15400
F2676       F  0.79920074  0.39309481  0.76970495    -0.13100
C2677       C  0.83479086  0.26835497  0.55581254     0.25000
C2678       C  0.82367854  0.27291652  0.57565070    -0.23200
C2679       C  0.79541348  0.27218562  0.57573778     0.19900
C2680       C  0.77905832  0.26752146  0.55655640     0.24900
C2681       C  0.79010585  0.26278172  0.53694867    -0.23100
C2682       C  0.81812138  0.26339625  0.53665701     0.19800
F2683       F  0.82903124  0.25861584  0.51784782    -0.13100
F2684       F  0.86215106  0.26947179  0.55473248    -0.15400
F2685       F  0.75225251  0.26758405  0.55710548    -0.15400
F2686       F  0.78355474  0.27625265  0.59434941    -0.13100
C2687       C  0.99720680  0.29418996  0.57404828     0.25000
C2688       C  0.97341319  0.30108159  0.57384427    -0.23200
C2689       C  0.95611584  0.29536492  0.55468417     0.19900
C2690       C  0.96195550  0.28253830  0.53650877     0.24900
C2691       C  0.98507625  0.27491546  0.53697199    -0.23100
C2692       C  0.00297187  0.28129614  0.55579126     0.19800
F2693       F  0.52649367  0.27571587  0.55627100    -0.13100
F2694       F  0.51461062  0.29945660  0.59194247    -0.15400
F2695       F  0.94440451  0.27680295  0.51853120    -0.15400
F2696       F  0.93319777  0.30188275  0.55352480    -0.13100
C2697       C  0.77039168  0.42722458  0.68177729     0.25000
C2698       C  0.78084867  0.44399219  0.66232914    -0.23200
C2699       C  0.76306396  0.43162815  0.64337916     0.19900
C2700       C  0.73518220  0.40412064  0.64414684     0.24900
C2701       C  0.72462173  0.38816923  0.66368452    -0.23100
C2702       C  0.74270562  0.39957397  0.68235160     0.19800
F2703       F  0.73302801  0.38433373  0.70138283    -0.13100
F2704       F  0.78642255  0.43786426  0.70050373    -0.15400
F2705       F  0.71809328  0.39332112  0.62586564    -0.15400
F2706       F  0.77194990  0.44656426  0.62417864    -0.13100
C2707       C  0.58933302  0.26321835  0.65114307     0.25000
C2708       C  0.60513113  0.27890810  0.66984335    -0.23200
C2709       C  0.59013778  0.27050238  0.68994837     0.19900
C2710       C  0.55970887  0.24684335  0.69134555     0.24900
C2711       C  0.54352925  0.23115696  0.67256182    -0.23100
C2712       C  0.55884816  0.23977227  0.65240154     0.19800
F2713       F  0.54471268  0.22501602  0.63383899    -0.13100
F2714       F  0.60329760  0.27110882  0.63152453    -0.15400
F2715       F  0.54615887  0.23938482  0.71111555    -0.15400
F2716       F  0.60502627  0.28542310  0.70826313    -0.13100
C2717       C  0.81552082  0.46191018  0.78438504     0.25000
C2718       C  0.83627320  0.45453421  0.79385165    -0.23200
C2719       C  0.86705267  0.47055326  0.78744167     0.19900
C2720       C  0.87678411  0.49298290  0.77141459     0.24900
C2721       C  0.85565462  0.99972673  0.76139017    -0.23100
C2722       C  0.82511271  0.48405730  0.76816225     0.19800
F2723       F  0.80439218  0.49030591  0.75914911    -0.13100
F2724       F  0.78579597  0.44734490  0.79071612    -0.15400
F2725       F  0.90653534  0.00770615  0.76528012    -0.15400
F2726       F  0.88782405  0.46481129  0.79696423    -0.13100
C2727       C  0.77031492  0.00864840  0.55982247     0.25000
C2728       C  0.77915747  0.02532181  0.54046827    -0.23200
C2729       C  0.80356388  0.05546933  0.54076934     0.19900
C2730       C  0.81949850  0.06855535  0.56002919     0.24900
C2731       C  0.81131763  0.05158874  0.57945049    -0.23100
C2732       C  0.78585285  0.02170490  0.57914868     0.19800
F2733       F  0.77651177  0.00450757  0.59739700    -0.13100
F2734       F  0.74740753  0.97914676  0.55984399    -0.15400
F2735       F  0.84379243  0.09733859  0.55932024    -0.15400
F2736       F  0.81229292  0.07208747  0.52225219    -0.13100
C2737       C  0.99083648  0.18726268  0.56607259     0.25000
C2738       C  0.96123985  0.17576464  0.57453496    -0.23200
C2739       C  0.94064946  0.18244510  0.56385679     0.19900
C2740       C  0.94981016  0.20099359  0.54552329     0.24900
C2741       C  0.97957182  0.21303343  0.53744486    -0.23100
C2742       C  0.49988195  0.20566611  0.54760323     0.19800
F2743       F  0.52856899  0.21657511  0.53969121    -0.13100
F2744       F  0.51120706  0.18119394  0.57590256    -0.15400
F2745       F  0.92952586  0.20702002  0.53551987    -0.15400
F2746       F  0.91194015  0.17197618  0.57160915    -0.13100
C2747       C  0.53286274  0.39341497  0.76025981     0.25000
C2748       C  0.50692915  0.39687252  0.75835870    -0.23200
C2749       C  0.99715322  0.40617903  0.77685616     0.19900
C2750       C  0.51268456  0.41153103  0.79658692     0.24900
C2751       C  0.53833476  0.40796907  0.79823892    -0.23100
C2752       C  0.54817328  0.39870478  0.78001762     0.19800
F2753       F  0.57285545  0.39491472  0.78138693    -0.13100
F2754       F  0.54339100  0.38455292  0.74311306    -0.15400
F2755       F  0.00312428  0.42089316  0.81400977    -0.15400
F2756       F  0.97224534  0.40965273  0.77608733    -0.13100
C2757       C  0.54759201  0.16808261  0.78061819     0.25000
C2758       C  0.54606408  0.14636656  0.79530548    -0.23200
C2759       C  0.52517183  0.11543358  0.79162161     0.19900
C2760       C  0.00594503  0.10620238  0.77347922     0.24900
C2761       C  0.50736756  0.12783363  0.75847127    -0.23100
C2762       C  0.52858415  0.15900323  0.76233238     0.19800
F2763       F  0.53057548  0.18093721  0.74875972    -0.13100
F2764       F  0.56751884  0.19815344  0.78402131    -0.15400
F2765       F  0.98576814  0.07602917  0.77081351    -0.15400
F2766       F  0.02332047  0.09410851  0.80573688    -0.13100
C2767       C  0.66024595  0.23377274  0.64087689     0.25000
C2768       C  0.65373298  0.21517969  0.65939526    -0.23200
C2769       C  0.64894489  0.22598028  0.67931432     0.19900
C2770       C  0.65208638  0.25490924  0.68084034     0.24900
C2771       C  0.65938463  0.27354586  0.66252194    -0.23100
C2772       C  0.66288219  0.26256420  0.64246593     0.19800
F2773       F  0.66887818  0.27979267  0.62437620    -0.13100
F2774       F  0.66486990  0.22458265  0.62127176    -0.15400
F2775       F  0.64860997  0.26504599  0.70041039    -0.15400
F2776       F  0.64186978  0.20892524  0.69758707    -0.13100
C2777       C  0.66342186  0.40428283  0.65078355     0.25000
C2778       C  0.67036328  0.39274293  0.66911979    -0.23200
C2779       C  0.68111456  0.41073405  0.68791767     0.19900
C2780       C  0.68468894  0.43993243  0.68840604     0.24900
C2781       C  0.67705066  0.45137262  0.67016241    -0.23100
C2782       C  0.66653134  0.43317866  0.65127258     0.19800
F2783       F  0.65801063  0.44271876  0.63344244    -0.13100
F2784       F  0.65342069  0.38739835  0.63236898    -0.15400
F2785       F  0.69553754  0.45692235  0.70671925    -0.15400
F2786       F  0.68780191  0.39984936  0.70588004    -0.13100
C2787       C  0.59055557  0.49513884  0.77205030     0.25000
C2788       C  0.61333190  0.49503385  0.75889167    -0.23200
C2789       C  0.62813741  0.47945006  0.76629931     0.19900
C2790       C  0.62016171  0.46421792  0.78620081     0.24900
C2791       C  0.59711963  0.46398114  0.79900437    -0.23100
C2792       C  0.58263201  0.47983364  0.79190488     0.19800
F2793       F  0.56055795  0.48024625  0.80417808    -0.13100
F2794       F  0.57562959  0.50977389  0.76563330    -0.15400
F2795       F  0.63434262  0.44889962  0.79273212    -0.15400
F2796       F  0.65086214  0.47946881  0.75456478    -0.13100
C2797       C  0.62168493  0.17056896  0.77851635     0.25000
C2798       C  0.60518309  0.14725378  0.79349581    -0.23200
C2799       C  0.60337318  0.11900047  0.79086681     0.19900
C2800       C  0.61763248  0.11389008  0.77330276     0.24900
C2801       C  0.63411387  0.13714437  0.75797617    -0.23100
C2802       C  0.63596587  0.16560910  0.76085687     0.19800
F2803       F  0.65179616  0.18881652  0.74675534    -0.13100
F2804       F  0.62476053  0.19849449  0.78140583    -0.15400
F2805       F  0.61481464  0.08594457  0.77125149    -0.15400
F2806       F  0.58798187  0.09641511  0.80549575    -0.13100
C2807       C  0.72350318  0.04050271  0.53719482     0.25000
C2808       C  0.71546134  0.01011304  0.53361881    -0.23200
C2809       C  0.69419737  0.48724479  0.54752306     0.19900
C2810       C  0.68265807  0.99525402  0.56547762     0.24900
C2811       C  0.69195069  0.02602972  0.56985681    -0.23100
C2812       C  0.71179999  0.04843923  0.55496800     0.19800
F2813       F  0.72149296  0.07842269  0.55815076    -0.13100
F2814       F  0.74385471  0.06276410  0.52390774    -0.15400
F2815       F  0.66350238  0.47261012  0.57923668    -0.15400
F2816       F  0.68604154  0.45765980  0.54423806    -0.13100
C2817       C  0.74461190  0.17633685  0.56078438     0.25000
C2818       C  0.72070969  0.17358456  0.57402554    -0.23200
C2819       C  0.70260504  0.18578807  0.56692500     0.19900
C2820       C  0.70869611  0.20098963  0.54722612     0.24900
C2821       C  0.73323726  0.20474280  0.53447494    -0.23100
C2822       C  0.75077989  0.19178404  0.54108800     0.19800
F2823       F  0.77426197  0.19470972  0.52865958    -0.13100
F2824       F  0.76233313  0.16462931  0.56708408    -0.15400
F2825       F  0.69147249  0.21330112  0.54102324    -0.15400
F2826       F  0.67850595  0.18246887  0.57880526    -0.13100
C2827       C  0.98704543  0.08960007  0.97750619     0.25000
C2828       C  0.98765191  0.10522113  0.99663866    -0.23200
C2829       C  0.49050383  0.09344630  0.01672392     0.19900
C2830       C  0.49367786  0.06763244  0.01750865     0.24900
C2831       C  0.99383692  0.05277965  0.99839917    -0.23100
C2832       C  0.99001050  0.06361760  0.97843867     0.19800
F2833       F  0.98974873  0.04931619  0.95976628    -0.13100
F2834       F  0.98418322  0.09969661  0.95779192    -0.15400
F2835       F  0.49683771  0.05721318  0.03701063    -0.15400
F2836       F  0.49129442  0.10739671  0.03571198    -0.13100
C2837       C  0.00506633  0.40370220  0.02394012     0.25000
C2838       C  0.51105535  0.39181062  0.00499593    -0.23200
C2839       C  0.51540112  0.40771090  0.98532566     0.19900
C2840       C  0.51305240  0.43404008  0.98457745     0.24900
C2841       C  0.50651052  0.44527196  0.00336171    -0.23100
C2842       C  0.00288598  0.43014241  0.02307495     0.19800
F2843       F  0.99678483  0.44077572  0.04149064    -0.13100
F2844       F  0.00035178  0.38934176  0.04328000    -0.15400
F2845       F  0.51664252  0.44836004  0.96534834    -0.15400
F2846       F  0.52126931  0.39753407  0.96658950    -0.13100
C2847       C  0.51507776  0.35187976  0.89964088     0.25000
C2848       C  0.53166072  0.33770396  0.90604385    -0.23200
C2849       C  0.55946958  0.34599249  0.89539518     0.19900
C2850       C  0.57075225  0.36842192  0.87923461     0.24900
C2851       C  0.55445549  0.38295594  0.87318014    -0.23100
C2852       C  0.52621439  0.37402198  0.88327389     0.19800
F2853       F  0.50959330  0.38716038  0.87749311    -0.13100
F2854       F  0.98799292  0.34428513  0.90919885    -0.15400
F2855       F  0.59747519  0.37563904  0.86925758    -0.15400
F2856       F  0.57647039  0.33327132  0.90119338    -0.13100
C2857       C  0.57702960  0.22740392  0.89379557     0.25000
C2858       C  0.55618683  0.20738472  0.90936262    -0.23200
C2859       C  0.54299799  0.17563656  0.90582196     0.19900
C2860       C  0.54996116  0.16444366  0.88719838     0.24900
C2861       C  0.57045835  0.18449188  0.87176914    -0.23100
C2862       C  0.58419430  0.21601725  0.87529981     0.19800
F2863       F  0.60431027  0.23580787  0.86061409    -0.13100
F2864       F  0.59039262  0.25803598  0.89632115    -0.15400
F2865       F  0.53638480  0.13387919  0.88410426    -0.15400
F2866       F  0.52240781  0.15514429  0.91996051    -0.13100
C2867       C  0.59440746  0.10069541  0.02349369     0.25000
C2868       C  0.60766038  0.11678175  0.00414370    -0.23200
C2869       C  0.59259948  0.10404561  0.98431881     0.19900
C2870       C  0.56604670  0.07548163  0.98383389     0.24900
C2871       C  0.55387834  0.05916593  0.00303385    -0.23100
C2872       C  0.56779900  0.07215038  0.02287169     0.19800
F2873       F  0.55575789  0.05695561  0.04165522    -0.13100
F2874       F  0.60751758  0.11206076  0.04305190    -0.15400
F2875       F  0.55260856  0.06331359  0.96450127    -0.15400
F2876       F  0.60390074  0.11867710  0.96523630    -0.13100
C2877       C  0.93744924  0.42481727  0.97716415     0.25000
C2878       C  0.94696802  0.43929434  0.99734353    -0.23200
C2879       C  0.93043049  0.42472472  0.01597973     0.19900
C2880       C  0.90411607  0.39617333  0.01450060     0.24900
C2881       C  0.89351255  0.38177127  0.99412395    -0.23100
C2882       C  0.91083487  0.39634268  0.97549123     0.19800
F2883       F  0.90186056  0.38339487  0.95560090    -0.13100
F2884       F  0.95369109  0.43858471  0.95903239    -0.15400
F2885       F  0.88855805  0.38332727  0.03306340    -0.15400
F2886       F  0.93949536  0.43850580  0.03562433    -0.13100
C2887       C  0.81579320  0.35442345  0.89814600     0.25000
C2888       C  0.78533380  0.33910724  0.90565946    -0.23200
C2889       C  0.76264925  0.34047503  0.89332622     0.19900
C2890       C  0.77030700  0.35704514  0.87407212     0.24900
C2891       C  0.80073806  0.37270859  0.86688765    -0.23100
C2892       C  0.82335406  0.37097836  0.87886124     0.19800
F2893       F  0.85290939  0.38600120  0.87212308    -0.13100
F2894       F  0.83817289  0.35276273  0.90912263    -0.15400
F2895       F  0.74803647  0.35803255  0.86246281    -0.15400
F2896       F  0.73308521  0.32608964  0.90001831    -0.13100
C2897       C  0.67338814  0.20980244  0.88687648     0.25000
C2898       C  0.66554092  0.18955567  0.90452406    -0.23200
C2899       C  0.63725139  0.16193721  0.90400453     0.19900
C2900       C  0.61701959  0.15543554  0.88674915     0.24900
C2901       C  0.62454817  0.17636491  0.86986149    -0.23100
C2902       C  0.65302773  0.20315971  0.86974349     0.19800
F2903       F  0.66094826  0.22306777  0.85302966    -0.13100
F2904       F  0.70044876  0.23643561  0.88629332    -0.15400
F2905       F  0.59014835  0.12859818  0.88643319    -0.15400
F2906       F  0.62865540  0.14146806  0.92039106    -0.13100
C2907       C  0.90065748  0.49838520  0.01418602     0.25000
C2908       C  0.88631501  0.99597940  0.99400963    -0.23200
C2909       C  0.89935172  0.99136967  0.97517293     0.19900
C2910       C  0.92636363  0.99012229  0.97647516     0.24900
C2911       C  0.94058134  0.99309715  0.99655253    -0.23100
C2912       C  0.92738317  0.49687359  0.01535837     0.19800
F2913       F  0.94075879  0.49957775  0.03493746    -0.13100
F2914       F  0.88880139  0.50189130  0.03297967    -0.15400
F2915       F  0.93909990  0.98680417  0.95807133    -0.15400
F2916       F  0.88624672  0.98833896  0.95545293    -0.13100
C2917       C  0.57632349  0.00763923  0.98679744     0.25000
C2918       C  0.55992728  0.50498896  0.00574386    -0.23200
C2919       C  0.57087682  0.50132236  0.02573597     0.19900
C2920       C  0.59784495  0.49995231  0.02675645     0.24900
C2921       C  0.61408239  0.50186469  0.00767812    -0.23100
C2922       C  0.60311256  0.50622976  0.98771067     0.19800
F2923       F  0.61805900  0.00875846  0.96884791    -0.13100
F2924       F  0.56596807  0.01105522  0.96731293    -0.15400
F2925       F  0.60765178  0.49618070  0.04634704    -0.15400
F2926       F  0.55508750  0.49847999  0.04420243    -0.13100
C2927       C  0.60592410  0.44885993  0.89450362     0.25000
C2928       C  0.61534554  0.44311111  0.87450456    -0.23200
C2929       C  0.64583581  0.44990236  0.87216205     0.19900
C2930       C  0.66637876  0.46180233  0.88952817     0.24900
C2931       C  0.65697897  0.46749912  0.90961153    -0.23100
C2932       C  0.62648129  0.46091209  0.91187058     0.19800
F2933       F  0.61618139  0.46521672  0.93112536    -0.13100
F2934       F  0.57696871  0.44346949  0.89710885    -0.15400
F2935       F  0.69556386  0.46798365  0.88660477    -0.15400
F2936       F  0.65570488  0.44483666  0.85297702    -0.13100
C2937       C  0.76857456  0.42488493  0.87083744     0.25000
C2938       C  0.79776154  0.42831308  0.86923992    -0.23200
C2939       C  0.81619856  0.43578348  0.88777904     0.19900
C2940       C  0.80532606  0.43893171  0.90784112     0.24900
C2941       C  0.77577416  0.43512858  0.90972969    -0.23100
C2942       C  0.75753579  0.42805791  0.89087155     0.19800
F2943       F  0.72906794  0.42445280  0.89163273    -0.13100
F2944       F  0.75037154  0.41747464  0.85306521    -0.15400
F2945       F  0.82407559  0.44614911  0.92529068    -0.15400
F2946       F  0.84477393  0.43974436  0.88643327    -0.13100
C2947       C  0.93495160  0.32925983  0.10656394     0.25000
C2948       C  0.92711151  0.31407556  0.12656926    -0.23200
C2949       C  0.92559044  0.28573148  0.12815172     0.19900
C2950       C  0.93204937  0.27289590  0.11016679     0.24900
C2951       C  0.94030197  0.28821498  0.09007100    -0.23100
C2952       C  0.94115494  0.31642953  0.08850666     0.19800
F2953       F  0.94850106  0.33206482  0.06955888    -0.13100
F2954       F  0.93761369  0.35711181  0.10463783    -0.15400
F2955       F  0.93114732  0.24590488  0.11273371    -0.15400
F2956       F  0.91787303  0.27043824  0.14723844    -0.13100
C2957       C  0.85450046  0.33824129  0.09619638     0.25000
C2958       C  0.83272299  0.30748629  0.09203511    -0.23200
C2959       C  0.83057055  0.28492042  0.10651317     0.19900
C2960       C  0.85087963  0.29277588  0.12379352     0.24900
C2961       C  0.87329462  0.32316990  0.12718585    -0.23100
C2962       C  0.87436505  0.34598885  0.11383525     0.19800
F2963       F  0.89516185  0.37572522  0.11765007    -0.13100
F2964       F  0.85697221  0.36079043  0.08307002    -0.15400
F2965       F  0.84872431  0.27067306  0.13726992    -0.15400
F2966       F  0.80961813  0.25499532  0.10361545    -0.13100
C2967       C  0.81867217  0.05973193  0.35062046     0.25000
C2968       C  0.82495577  0.04906583  0.33124797    -0.23200
C2969       C  0.83187030  0.06711274  0.31240639     0.19900
C2970       C  0.83382890  0.09553468  0.31323147     0.24900
C2971       C  0.82903232  0.10656427  0.33279158    -0.23100
C2972       C  0.82087109  0.08827332  0.35135849     0.19800
F2973       F  0.81579223  0.09845302  0.37038981    -0.13100
F2974       F  0.81099422  0.04291639  0.36903955    -0.15400
F2975       F  0.84062958  0.11245911  0.29491338    -0.15400
F2976       F  0.83781204  0.05789818  0.29326075    -0.13100
C2977       C  0.85345604  0.27263654  0.35733701     0.25000
C2978       C  0.84622635  0.28433125  0.33899822    -0.23200
C2979       C  0.83696789  0.26663005  0.31982404     0.19900
C2980       C  0.83441606  0.23793252  0.31919941     0.24900
C2981       C  0.84117583  0.22626480  0.33755082    -0.23100
C2982       C  0.85110914  0.24391711  0.35654441     0.19800
F2983       F  0.85795719  0.23304144  0.37445196    -0.13100
F2984       F  0.86263103  0.28885760  0.37607430    -0.15400
F2985       F  0.82499022  0.22127185  0.30065579    -0.15400
F2986       F  0.82909896  0.27641289  0.30180836    -0.13100
C2987       C  0.81929621  0.50238839  0.43853171     0.25000
C2988       C  0.80858565  0.47201225  0.43208427    -0.23200
C2989       C  0.78482180  0.44833357  0.44416753     0.19900
C2990       C  0.77108309  0.45491718  0.46136510     0.24900
C2991       C  0.78082690  0.48519544  0.46705486    -0.23100
C2992       C  0.80579087  0.00892220  0.45601784     0.19800
F2993       F  0.81591850  0.03839146  0.46151230    -0.13100
F2994       F  0.84229642  0.02587210  0.42749041    -0.15400
F2995       F  0.74760084  0.43163014  0.47215833    -0.15400
F2996       F  0.77342554  0.41867256  0.43857524    -0.13100
C2997       C  0.78466721  0.29763656  0.42559388     0.25000
C2998       C  0.78219157  0.32413766  0.42584474    -0.23200
C2999       C  0.77342703  0.33242294  0.44528932     0.19900
C3000       C  0.76753186  0.31475416  0.46391204     0.24900
C3001       C  0.77004727  0.28853699  0.46338454    -0.23100
C3002       C  0.77883026  0.28020634  0.44424002     0.19800
F3003       F  0.78152354  0.25491113  0.44361553    -0.13100
F3004       F  0.79294382  0.28850468  0.40739019    -0.15400
F3005       F  0.75877967  0.32286349  0.48237339    -0.15400
F3006       F  0.77099536  0.35783084  0.44650548    -0.13100
C3007       C  0.86813243  0.33783266  0.23890493     0.25000
C3008       C  0.86473427  0.36371297  0.24042447    -0.23200
C3009       C  0.87407762  0.38407870  0.22273586     0.19900
C3010       C  0.88727047  0.37914462  0.20442919     0.24900
C3011       C  0.89141897  0.35387932  0.20334326    -0.23100
C3012       C  0.88122496  0.33295781  0.22049187     0.19800
F3013       F  0.88345294  0.30744245  0.21923491    -0.13100
F3014       F  0.85962338  0.31758299  0.25543395    -0.15400
F3015       F  0.89630132  0.39923566  0.18776084    -0.15400
F3016       F  0.87085304  0.40907279  0.22314824    -0.13100
C3017       C  0.73343617  0.06945298  0.31742916     0.25000
C3018       C  0.71651354  0.05854982  0.33680621    -0.23200
C3019       C  0.72874796  0.07559918  0.35598736     0.19900
C3020       C  0.75755767  0.10214554  0.35589439     0.24900
C3021       C  0.77485236  0.11194551  0.33674848    -0.23100
C3022       C  0.76237090  0.09559011  0.31751281     0.19800
F3023       F  0.77833119  0.10500325  0.29869849    -0.13100
F3024       F  0.72266731  0.05422793  0.29841922    -0.15400
F3025       F  0.76894783  0.11790299  0.37462922    -0.15400
F3026       F  0.71302969  0.06645504  0.37491227    -0.13100
C3027       C  0.93417022  0.25945757  0.30825373     0.25000
C3028       C  0.95468230  0.27067764  0.32591602    -0.23200
C3029       C  0.94492174  0.25551100  0.34606428     0.19900
C3030       C  0.91539044  0.23064478  0.34853620     0.24900
C3031       C  0.89491926  0.22034991  0.33108196    -0.23100
C3032       C  0.90452839  0.23474653  0.31092196     0.19800
F3033       F  0.88518652  0.22458851  0.29371646    -0.13100
F3034       F  0.94241160  0.27270294  0.28845142    -0.15400
F3035       F  0.90664715  0.21663591  0.36807525    -0.15400
F3036       F  0.96365037  0.26493889  0.36362396    -0.13100
C3037       C  0.50118431  0.30640140  0.42871935     0.25000
C3038       C  0.53239141  0.32460954  0.42335389    -0.23200
C3039       C  0.55433401  0.32284585  0.43649849     0.19900
C3040       C  0.54524940  0.30329223  0.45432844     0.24900
C3041       C  0.51420606  0.28520939  0.45947176    -0.23100
C3042       C  0.99235633  0.28746876  0.44692315     0.19800
F3043       F  0.96227096  0.27085458  0.45216930    -0.13100
F3044       F  0.97936681  0.30800852  0.41698727    -0.15400
F3045       F  0.56683030  0.30221560  0.46675636    -0.15400
F3046       F  0.58463347  0.33936994  0.43182817    -0.13100
C3047       C  0.68996682  0.44251876  0.45912585     0.25000
C3048       C  0.71677755  0.47112248  0.45970543    -0.23200
C3049       C  0.72725330  0.48805004  0.44046451     0.19900
C3050       C  0.71082692  0.47691818  0.42110670     0.24900
C3051       C  0.68318376  0.44874378  0.42062093    -0.23100
C3052       C  0.67337219  0.43137464  0.43984780     0.19800
F3053       F  0.64681087  0.40425267  0.44041350    -0.13100
F3054       F  0.67946557  0.42558358  0.47743302    -0.15400
F3055       F  0.72160972  0.49425114  0.40299598    -0.15400
F3056       F  0.75262347  0.51614312  0.44062342    -0.13100
C3057       C  0.97264076  0.34532775  0.23385734     0.25000
C3058       C  0.98922442  0.37654262  0.23960132    -0.23200
C3059       C  0.98678321  0.39763599  0.22614698     0.19900
C3060       C  0.96792091  0.38771335  0.20775663     0.24900
C3061       C  0.95155936  0.35664987  0.20218615    -0.23100
C3062       C  0.95432907  0.33562401  0.21523296     0.19800
F3063       F  0.93892775  0.30554032  0.21005841    -0.13100
F3064       F  0.47478475  0.32404754  0.24585143    -0.15400
F3065       F  0.96591272  0.40852078  0.19515054    -0.15400
F3066       F  0.00252775  0.42788134  0.23078262    -0.13100
C3067       C  0.94262313  0.15373194  0.10665006     0.25000
C3068       C  0.96928863  0.16050121  0.09494541    -0.23200
C3069       C  0.98510720  0.14519711  0.10058403     0.19900
C3070       C  0.97412993  0.12327012  0.11709669     0.24900
C3071       C  0.94680606  0.11569875  0.12804334    -0.23100
C3072       C  0.93149563  0.13151380  0.12291146     0.19800
F3073       F  0.90590034  0.12574677  0.13392901    -0.13100
F3074       F  0.92650779  0.16775160  0.10184290    -0.15400
F3075       F  0.98996270  0.10904426  0.12220146    -0.15400
F3076       F  0.51125028  0.15143723  0.09012282    -0.13100
C3077       C  0.87428525  0.03709861  0.09021350     0.25000
C3078       C  0.84419621  0.03191620  0.09189705    -0.23200
C3079       C  0.83510164  0.03913371  0.11157927     0.19900
C3080       C  0.85547533  0.05105097  0.12905848     0.24900
C3081       C  0.88551633  0.05639329  0.12723952    -0.23100
C3082       C  0.89465802  0.04918364  0.10768134     0.19800
F3083       F  0.92316968  0.05317090  0.10563207    -0.13100
F3084       F  0.88442732  0.03132304  0.07143324    -0.15400
F3085       F  0.84589881  0.05759796  0.14781264    -0.15400
F3086       F  0.80638828  0.03451393  0.11401654    -0.13100
C3087       C  0.91351801  0.01647230  0.20763946     0.25000
C3088       C  0.90404164  0.03753500  0.20333741    -0.23200
C3089       C  0.88824559  0.04381926  0.21932652     0.19900
C3090       C  0.88236600  0.02953116  0.23955323     0.24900
C3091       C  0.89201193  0.00838728  0.24409538    -0.23100
C3092       C  0.90771304  0.00209605  0.22776531     0.19800
F3093       F  0.91781441  0.48229065  0.23121077    -0.13100
F3094       F  0.92895178  0.01023457  0.19237389    -0.15400
F3095       F  0.86685517  0.03618041  0.25449672    -0.15400
F3096       F  0.87907960  0.06433970  0.21547469    -0.13100
C3097       C  0.74104718  0.16522493  0.10578277     0.25000
C3098       C  0.71830584  0.15968598  0.09024896    -0.23200
C3099       C  0.68742915  0.13912525  0.09547850     0.19900
C3100       C  0.67963952  0.12471962  0.11565519     0.24900
C3101       C  0.70239514  0.13050321  0.13095699    -0.23100
C3102       C  0.73305794  0.15098163  0.12597272     0.19800
F3103       F  0.75534992  0.15694230  0.14066720    -0.13100
F3104       F  0.77111978  0.18449097  0.10156765    -0.15400
F3105       F  0.64985278  0.10468721  0.12017009    -0.15400
F3106       F  0.66458404  0.13330329  0.08131439    -0.13100
C3107       C  0.74823554  0.08247649  0.10726678     0.25000
C3108       C  0.72608731  0.06492898  0.09146385    -0.23200
C3109       C  0.69489366  0.05328775  0.09638418     0.19900
C3110       C  0.68619430  0.05927230  0.11638248     0.24900
C3111       C  0.70826950  0.07692902  0.13187332    -0.23100
C3112       C  0.73931497  0.08829848  0.12735395     0.19800
F3113       F  0.76095899  0.10534004  0.14229340    -0.13100
F3114       F  0.77850109  0.09403748  0.10333716    -0.15400
F3115       F  0.65605717  0.04802263  0.12063951    -0.15400
F3116       F  0.67254442  0.03521338  0.08217712    -0.13100
C3117       C  0.68647526  0.04782060  0.21844850     0.25000
C3118       C  0.66596711  0.05256824  0.20607800    -0.23200
C3119       C  0.63443914  0.03396068  0.20960319     0.19900
C3120       C  0.62352992  0.01120534  0.22548513     0.24900
C3121       C  0.64396839  0.50665779  0.23834760    -0.23100
C3122       C  0.67571969  0.02538284  0.23452636     0.19800
F3123       F  0.69636160  0.52188974  0.24632256    -0.13100
F3124       F  0.71705532  0.06521220  0.21506182    -0.15400
F3125       F  0.59287543  0.99421424  0.22866730    -0.15400
F3126       F  0.61415127  0.03750987  0.19736264    -0.13100
C3127       C  0.76136200  0.16199354  0.32038922     0.25000
C3128       C  0.78056958  0.17116824  0.33855262    -0.23200
C3129       C  0.77095021  0.17843888  0.35783758     0.19900
C3130       C  0.74200782  0.17571675  0.35907677     0.24900
C3131       C  0.72198013  0.16503171  0.34109084    -0.23100
C3132       C  0.73219627  0.15823180  0.32172998     0.19800
F3133       F  0.71399089  0.14771347  0.30395274    -0.13100
F3134       F  0.77066101  0.15582139  0.30137487    -0.15400
F3135       F  0.73383031  0.18377455  0.37781692    -0.15400
F3136       F  0.78927753  0.18746085  0.37559230    -0.13100
C3137       C  0.93450614  0.17085789  0.30919052     0.25000
C3138       C  0.94733231  0.16567293  0.32781181    -0.23200
C3139       C  0.93021136  0.15732439  0.34722697     0.19900
C3140       C  0.90165837  0.15528535  0.34816316     0.24900
C3141       C  0.88940954  0.16135802  0.32980006    -0.23100
C3142       C  0.90573137  0.16859250  0.31018839     0.19800
F3143       F  0.89396877  0.17394987  0.29208760    -0.13100
F3144       F  0.95002291  0.17876467  0.29015257    -0.15400
F3145       F  0.88625730  0.14819496  0.36724775    -0.15400
F3146       F  0.94081034  0.15061601  0.36537124    -0.13100
C3147       C  0.54640679  0.21146852  0.44384971     0.25000
C3148       C  0.52561561  0.19688376  0.42663103    -0.23200
C3149       C  0.49717073  0.19589779  0.42724891     0.19900
C3150       C  0.49023290  0.20980705  0.44425234     0.24900
C3151       C  0.51141084  0.22481566  0.46094854    -0.23100
C3152       C  0.53928514  0.22518456  0.46075808     0.19800
F3153       F  0.55980372  0.23911214  0.47701124    -0.13100
F3154       F  0.57397342  0.21296438  0.44431910    -0.15400
F3155       F  0.96293844  0.20888973  0.44436277    -0.15400
F3156       F  0.97641824  0.18254758  0.41104804    -0.13100
C3157       C  0.67843470  0.24421560  0.44018567     0.25000
C3158       C  0.67715917  0.22376501  0.42422949    -0.23200
C3159       C  0.69284082  0.20769504  0.42782253     0.19900
C3160       C  0.70946608  0.21209203  0.44683928     0.24900
C3161       C  0.71119443  0.23291441  0.46247031    -0.23100
C3162       C  0.69549077  0.24886043  0.45912177     0.19800
F3163       F  0.69686479  0.26904347  0.47418365    -0.13100
F3164       F  0.66364017  0.26005298  0.43731058    -0.15400
F3165       F  0.72452938  0.19651964  0.44980099    -0.15400
F3166       F  0.69141919  0.18697993  0.41320135    -0.13100
C3167       C  0.95803782  0.10730562  0.21914101     0.25000
C3168       C  0.96351658  0.09147986  0.20280617    -0.23200
C3169       C  0.98409270  0.08111050  0.20652712     0.19900
C3170       C  0.49908131  0.08646633  0.22648777     0.24900
C3171       C  0.99353923  0.10231562  0.24311949    -0.23100
C3172       C  0.97264359  0.11251440  0.23914184     0.19800
F3173       F  0.96680107  0.12831781  0.25433221    -0.13100
F3174       F  0.93813214  0.11744086  0.21573851    -0.15400
F3175       F  0.51902288  0.07625985  0.22942899    -0.15400
F3176       F  0.48925008  0.06526683  0.19093315    -0.13100
C3177       C  0.62803938  0.12485204  0.22276744     0.25000
C3178       C  0.64537914  0.13382474  0.24206285    -0.23200
C3179       C  0.67190741  0.13129867  0.24316079     0.19900
C3180       C  0.68062916  0.11988955  0.22561343     0.24900
C3181       C  0.66317756  0.11076221  0.20654886    -0.23100
C3182       C  0.63700975  0.11365589  0.20516128     0.19800
F3183       F  0.61997806  0.10537552  0.18675968    -0.13100
F3184       F  0.60240726  0.12694366  0.22085099    -0.15400
F3185       F  0.70661519  0.11837398  0.22708082    -0.15400
F3186       F  0.68913097  0.13907894  0.26143631    -0.13100
O3187       O  0.52722720  0.63664390  0.32937084    -0.87000
C3188       C  0.59517166  0.68887465  0.28621626     0.89000
Mg3189     Mg  0.52199614  0.65409843  0.35987978     1.58100
O3190       O  0.60515403  0.63419035  0.31498467    -0.86700
O3191       O  0.53232548  0.59960834  0.31588010    -0.74000
C3192       C  0.65790753  0.71702215  0.40456242     0.94100
O3193       O  0.55826936  0.70887740  0.32131878    -0.73900
O3194       O  0.63356386  0.71848807  0.40537382    -0.81400
Mg3195     Mg  0.53231526  0.66442124  0.30156671     1.58000
C3196       C  0.69211796  0.66416703  0.34132434     0.94000
O3197       O  0.50494194  0.62409729  0.27854639    -0.79600
H3198       H  0.59180653  0.59101414  0.32263224    -0.05000
C3199       C  0.64987089  0.72071870  0.34018722     0.89000
O3200       O  0.54602147  0.63230735  0.37792194    -0.74100
O3201       O  0.57429526  0.66522052  0.29407050    -0.86900
O3202       O  0.67797201  0.66049446  0.32354714    -0.79700
C3203       C  0.63429915  0.64293913  0.26146580     0.94100
C3204       C  0.51197467  0.61177191  0.26329874     0.94000
Mg3205     Mg  0.63710476  0.66603930  0.36652545     1.58000
O3206       O  0.66517106  0.70795510  0.38758266    -0.79600
O3207       O  0.61162203  0.62108933  0.34739790    -0.73900
O3208       O  0.60609084  0.63485349  0.26293289    -0.79700
O3209       O  0.98733523  0.66266465  0.30935609    -0.81400
O3210       O  0.56291178  0.69269307  0.40578664    -0.79700
C3211       C  0.60261886  0.61449984  0.32790209     0.88400
O3212       O  0.59479032  0.66430413  0.37407078    -0.86900
O3213       O  0.64126348  0.69330214  0.33873836    -0.87000
O3214       O  0.63720052  0.73043001  0.35321370    -0.74100
Mg3215     Mg  0.57077047  0.62125756  0.29047632     1.58000
O3216       O  0.65285819  0.65689725  0.27686083    -0.81400
H3217       H  0.50045132  0.59332201  0.33844753    -0.05200
O3218       O  0.56441964  0.69582981  0.35383133    -0.86700
H3219       H  0.57863843  0.73910338  0.34593070    -0.05000
H3220       H  0.57911411  0.62599827  0.39127705    -0.05200
C3221       C  0.56740775  0.71554567  0.34078540     0.88400
C3222       C  0.51899794  0.60929226  0.32828371     0.89000
C3223       C  0.57377406  0.64046458  0.38164043     0.89000
H3224       H  0.66834106  0.73674708  0.32999006    -0.05100
O3225       O  0.62293989  0.69734680  0.29005770    -0.74200
Mg3226     Mg  0.59863751  0.70801881  0.37861870     1.58000
H3227       H  0.58967663  0.70297696  0.27628282    -0.05100
C3228       C  0.97732147  0.66693417  0.32715856     0.94000
O3229       O  0.51660017  0.67363147  0.39156092    -0.81400
C3230       C  0.53523958  0.68651616  0.40710429     0.94100
O3231       O  0.53579026  0.60944085  0.26425035    -0.81400
Mg3232     Mg  0.64711053  0.67614462  0.30844654     1.58200
O3233       O  0.49153867  0.67050123  0.34491561    -0.79700
O3234       O  0.68201197  0.66854600  0.35897476    -0.81400
C3235       C  0.67371363  0.60067142  0.18750463     0.03600
C3236       C  0.67715502  0.57457750  0.18793274     0.03600
C3237       C  0.68993453  0.56803380  0.16996091    -0.16900
C3238       C  0.69869155  0.58650548  0.15155428     0.03600
C3239       C  0.69471429  0.61200568  0.15092505     0.03600
C3240       C  0.68242814  0.61899955  0.16886460    -0.16900
H3241       H  0.67985814  0.63894880  0.16836603     0.05700
H3242       H  0.69201025  0.54778377  0.16997173     0.05700
C3243       C  0.91475674  0.55644502  0.18358623     0.03600
C3244       C  0.94416622  0.58234304  0.18317144     0.03600
C3245       C  0.95437446  0.60054881  0.16461389    -0.16900
C3246       C  0.93555302  0.59343379  0.14623545     0.03600
C3247       C  0.90603729  0.56680124  0.14644044     0.03600
C3248       C  0.89608203  0.54869559  0.16523760    -0.16900
H3249       H  0.87371881  0.52829511  0.16555382     0.05700
H3250       H  0.97668944  0.62102347  0.16478927     0.05700
O3251       O  0.64430825  0.94684346  0.33555982    -0.87000
C3252       C  0.57486194  0.92689567  0.37767632     0.89000
Mg3253     Mg  0.64726465  0.96774718  0.30483007     1.58100
O3254       O  0.57019762  0.86416751  0.34956129    -0.86700
O3255       O  0.64282416  0.90623045  0.34859434    -0.74000
C3256       C  0.51056552  0.88701546  0.25856221     0.94100
O3257       O  0.60804407  0.98289776  0.34284847    -0.73900
O3258       O  0.53316147  0.91419833  0.25915911    -0.81400
Mg3259     Mg  0.63695360  0.96854451  0.36319256     1.58000
C3260       C  0.98399670  0.80031854  0.32443344     0.94000
O3261       O  0.66679474  0.95963567  0.38718920    -0.79600
H3262       H  0.58643096  0.83653159  0.34227392    -0.05000
C3263       C  0.51865819  0.89798142  0.32330671     0.89000
O3264       O  0.62587356  0.92142704  0.28726820    -0.74100
O3265       O  0.59726818  0.92580280  0.37087636    -0.86900
O3266       O  0.49901228  0.81204585  0.34173909    -0.79700
C3267       C  0.54206235  0.84367662  0.40339037     0.94100
C3268       C  0.66280807  0.93951797  0.40121127     0.94000
Mg3269     Mg  0.53590491  0.85856689  0.29728736     1.58000
O3270       O  0.50654433  0.86768968  0.27323933    -0.79600
O3271       O  0.56427797  0.84352518  0.31750678    -0.73900
O3272       O  0.56996744  0.86431831  0.40134693    -0.79700
O3273       O  0.67908201  0.51359642  0.35508378    -0.81400
O3274       O  0.60474611  0.96469381  0.25818540    -0.79700
C3275       C  0.57399154  0.84749455  0.33688425     0.88400
O3276       O  0.57620967  0.90128594  0.28898126    -0.86900
O3277       O  0.52934128  0.88091338  0.32477184    -0.87000
O3278       O  0.53027674  0.92070883  0.31065635    -0.74100
Mg3279     Mg  0.60456338  0.88749226  0.37397373     1.58000
O3280       O  0.52277937  0.83755461  0.38824188    -0.81400
H3281       H  0.67389964  0.93379570  0.32631292    -0.05200
O3282       O  0.60301523  0.96328904  0.31045824    -0.86700
H3283       H  0.58564659  0.98980911  0.31820857    -0.05000
H3284       H  0.59581505  0.88110639  0.27318981    -0.05200
C3285       C  0.59852897  0.97922804  0.32341323     0.88400
C3286       C  0.65474223  0.92951657  0.33649644     0.89000
C3287       C  0.59894152  0.90049255  0.28256454     0.89000
H3288       H  0.49939780  0.89384122  0.33331897    -0.05100
O3289       O  0.54775285  0.90632919  0.37311148    -0.74200
Mg3290     Mg  0.56903685  0.93981739  0.28544922     1.58000
H3291       H  0.57845918  0.94636673  0.38715418    -0.05100
C3292       C  0.68822558  0.52787830  0.33724646     0.94000
O3293       O  0.65100794  0.99072984  0.27292251    -0.81400
C3294       C  0.63276339  0.98575151  0.25728529     0.94100
O3295       O  0.64044673  0.91237069  0.39986858    -0.81400
Mg3296     Mg  0.52632019  0.86009586  0.35578825     1.58200
O3297       O  0.67505801  0.51572390  0.31938987    -0.79700
O3298       O  0.99255631  0.81427252  0.30640206    -0.81400
O3299       O  0.81117359  0.85986095  0.34079424    -0.87000
C3300       C  0.86627472  0.93038190  0.38205031     0.89000
Mg3301     Mg  0.82640186  0.85562521  0.30927966     1.58100
O3302       O  0.80717389  0.93711828  0.35758355    -0.86700
O3303       O  0.77487631  0.86489931  0.35605560    -0.74000
C3304       C  0.88258933  0.99027697  0.26447630     0.94100
O3305       O  0.88529250  0.89339503  0.34579698    -0.73900
O3306       O  0.88659694  0.96763775  0.26600902    -0.81400
Mg3307     Mg  0.84267262  0.86716275  0.36692576     1.58000
C3308       C  0.82766179  0.52117109  0.33131262     0.94000
O3309       O  0.80493325  0.83919854  0.39107580    -0.79600
H3310       H  0.76270336  0.92175003  0.35263655    -0.05000
C3311       C  0.89084685  0.98441898  0.32963835     0.89000
O3312       O  0.80195245  0.87851894  0.29341471    -0.74100
O3313       O  0.84244098  0.90850802  0.37504640    -0.86900
O3314       O  0.82790639  0.00911342  0.34922576    -0.79700
C3315       C  0.81898530  0.96461824  0.41153043     0.94100
C3316       C  0.79193082  0.84456344  0.40670853     0.94000
Mg3317     Mg  0.83200940  0.96829530  0.30491468     1.58000
O3318       O  0.86883308  0.99632461  0.27927614    -0.79600
O3319       O  0.78968693  0.94177052  0.32644850    -0.73900
O3320       O  0.81504369  0.93794294  0.40923867    -0.79700
O3321       O  0.84256103  0.82337989  0.35823980    -0.81400
O3322       O  0.86066654  0.89859107  0.26369180    -0.79700
C3323       C  0.78561703  0.93328810  0.34605597     0.88400
O3324       O  0.83268926  0.92746609  0.29726045    -0.86900
O3325       O  0.86350103  0.97648887  0.33142300    -0.87000
O3326       O  0.89984185  0.97075908  0.31697013    -0.74100
Mg3327     Mg  0.79813735  0.90311066  0.38144106     1.58000
O3328       O  0.82940463  0.98389867  0.39616093    -0.81400
H3329       H  0.76706675  0.83294937  0.33320359    -0.05200
O3330       O  0.86737793  0.89854900  0.31503914    -0.86700
H3331       H  0.91180528  0.91311417  0.31936961    -0.05000
H3332       H  0.79286190  0.91038934  0.28151788    -0.05200
C3333       C  0.88905448  0.90189854  0.32621491     0.88400
C3334       C  0.78379281  0.85154592  0.34302076     0.89000
C3335       C  0.80871910  0.90588429  0.29021442     0.89000
H3336       H  0.90744653  0.00287648  0.33960690    -0.05100
O3337       O  0.87243321  0.95765539  0.37903689    -0.74200
Mg3338     Mg  0.87699430  0.93279225  0.29146821     1.58000
H3339       H  0.88241751  0.92624778  0.39069220    -0.05100
C3340       C  0.84516360  0.81312593  0.33999878     0.94000
O3341       O  0.84414164  0.85204707  0.27632603    -0.81400
C3342       C  0.85521397  0.87146835  0.26111561     0.94100
O3343       O  0.78891955  0.86791788  0.40690306    -0.81400
Mg3344     Mg  0.84765455  0.98040842  0.36302265     1.58200
O3345       O  0.84516470  0.82600286  0.32232101    -0.79700
O3346       O  0.83123859  0.51095967  0.31339781    -0.81400
C3347       C  0.90359577  0.84766697  0.18342058     0.03600
C3348       C  0.93077196  0.84622554  0.18323256     0.03600
C3349       C  0.93837634  0.83543471  0.16451932    -0.16900
C3350       C  0.91995485  0.82738665  0.14577433     0.03600
C3351       C  0.89418895  0.83133792  0.14581586     0.03600
C3352       C  0.88616536  0.84103614  0.16457362    -0.16900
H3353       H  0.86538596  0.84232608  0.16472729     0.05700
H3354       H  0.95876092  0.83349187  0.16449653     0.05700
O3355       O  0.72321913  0.52909556  0.00544277    -0.87000
C3356       C  0.73733508  0.97633465  0.04880094     0.89000
Mg3357     Mg  0.69971736  0.51133617  0.97530483     1.58100
O3358       O  0.80203784  0.52910326  0.01898329    -0.86700
O3359       O  0.76625940  0.56581827  0.01834428    -0.74000
C3360       C  0.76585539  0.94264532  0.93040864     0.94100
O3361       O  0.67904364  0.95708037  0.01481508    -0.73900
O3362       O  0.74037303  0.94179738  0.93115833    -0.81400
Mg3363     Mg  0.70004380  0.00231382  0.03371203     1.58000
C3364       C  0.85734580  0.49688783  0.99314387     0.94000
O3365       O  0.71536302  0.54398311  0.05594508    -0.79600
H3366       H  0.83288961  0.57164149  0.01034450    -0.05000
C3367       C  0.75723375  0.94164231  0.99570728     0.89000
O3368       O  0.74520027  0.53083838  0.95676257    -0.74100
O3369       O  0.74062204  0.00008538  0.04085384    -0.86900
O3370       O  0.84771638  0.50272654  0.01050485    -0.79700
C3371       C  0.82356196  0.52193189  0.07264729     0.94100
C3372       C  0.73486141  0.55552713  0.07122446     0.94000
Mg3373     Mg  0.80014115  0.49454243  0.96787332     1.58000
O3374       O  0.78402674  0.95199944  0.94653087    -0.79600
O3375       O  0.82145918  0.54020993  0.98638927    -0.73900
O3376       O  0.80309011  0.52945107  0.07134859    -0.79700
O3377       O  0.65746161  0.00530903  0.02609503    -0.81400
O3378       O  0.69742779  0.96863417  0.93004700    -0.79700
C3379       C  0.81944762  0.54795280  0.00564101     0.88400
O3380       O  0.76000752  0.49750452  0.96064926    -0.86900
O3381       O  0.77728162  0.96879757  0.99629888    -0.87000
O3382       O  0.73414598  0.93222260  0.98332248    -0.74100
Mg3383     Mg  0.78223451  0.54363399  0.04373618     1.58000
O3384       O  0.82795020  0.50785237  0.05728038    -0.81400
H3385       H  0.74077722  0.57230812  0.99587800    -0.05200
O3386       O  0.69822489  0.96880872  0.98221764    -0.86700
H3387       H  0.66731555  0.92614836  0.99049415    -0.05000
H3388       H  0.78360094  0.53515593  0.94288623    -0.05200
C3389       C  0.68081393  0.94973523  0.99542081     0.88400
C3390       C  0.74300150  0.55632361  0.00615829     0.89000
C3391       C  0.76375980  0.52150182  0.95285933     0.89000
H3392       H  0.75914898  0.92563659  0.00616673    -0.05100
O3393       O  0.75625724  0.96740709  0.04500123    -0.74200
Mg3394     Mg  0.71825866  0.95433975  0.95764437     1.58000
H3395       H  0.71764142  0.96257709  0.05887037    -0.05100
C3396       C  0.64295731  0.00081190  0.00836127     0.94000
O3397       O  0.67359527  0.99137621  0.94408878    -0.81400
C3398       C  0.67751579  0.97691532  0.92877633     0.94100
O3399       O  0.76058802  0.55689895  0.07018163    -0.81400
Mg3400     Mg  0.80152770  0.98739506  0.02614552     1.58200
O3401       O  0.65340043  0.99696267  0.99063266    -0.79700
O3402       O  0.84212492  0.49073533  0.97562592    -0.81400
O3403       O  0.78245322  0.80685328  0.99130744    -0.87000
C3404       C  0.76757270  0.73552347  0.95214077     0.89000
Mg3405     Mg  0.80157801  0.81182962  0.02291338     1.58100
O3406       O  0.70223367  0.72891434  0.97751541    -0.86700
O3407       O  0.74077991  0.80132371  0.97651426    -0.74000
C3408       C  0.72663289  0.67824550  0.07022088     0.94100
O3409       O  0.82390661  0.77463978  0.98750514    -0.73900
O3410       O  0.75313851  0.70139542  0.06852204    -0.81400
Mg3411     Mg  0.80706958  0.79946226  0.96546923     1.58000
C3412       C  0.63847409  0.64480401  0.00469471     0.94000
O3413       O  0.79684999  0.82555348  0.93962798    -0.79600
H3414       H  0.67253032  0.74348548  0.98209575    -0.05000
C3415       C  0.73907591  0.68269331  0.00568021     0.89000
O3416       O  0.75415268  0.78867868  0.03884222    -0.74100
O3417       O  0.76552019  0.75765683  0.95819460    -0.86900
O3418       O  0.65095215  0.65724660  0.98677353    -0.79700
C3419       C  0.68466629  0.69877627  0.92464015     0.94100
C3420       C  0.77671089  0.81941053  0.92506648     0.94000
Mg3421     Mg  0.69597426  0.69830338  0.03021496     1.58000
O3422       O  0.70631815  0.67171831  0.05573156    -0.79600
O3423       O  0.67932602  0.72371908  0.00842699    -0.73900
O3424       O  0.70742200  0.72570359  0.92576063    -0.79700
O3425       O  0.85065180  0.84368249  0.97387891    -0.81400
O3426       O  0.79433887  0.77094002  0.06933811    -0.79700
C3427       C  0.68410021  0.73235938  0.98884932     0.88400
O3428       O  0.73714259  0.73972082  0.03708026    -0.86900
O3429       O  0.71963320  0.69048327  0.00397096    -0.87000
O3430       O  0.76226640  0.69703634  0.01783086    -0.74100
Mg3431     Mg  0.72569162  0.76180880  0.95249411     1.58000
O3432       O  0.67685562  0.68072223  0.94060951    -0.81400
H3433       H  0.76633863  0.83471493  0.99815514    -0.05200
O3434       O  0.80020366  0.76924810  0.01805949    -0.86700
H3435       H  0.83092525  0.75581447  0.01426551    -0.05000
H3436       H  0.71375269  0.75676695  0.05180022    -0.05200
C3437       C  0.81901183  0.76635653  0.00713485     0.88400
C3438       C  0.76370413  0.81540683  0.98892171     0.89000
C3439       C  0.73421772  0.76132476  0.04314520     0.89000
H3440       H  0.73681757  0.66386373  0.99602891    -0.05100
O3441       O  0.74679814  0.70835702  0.95628237    -0.74200
Mg3442     Mg  0.77698896  0.73582496  0.04244274     1.58000
H3443       H  0.78775878  0.73937309  0.94342354    -0.05100
C3444       C  0.86323799  0.85343053  0.99229117     0.94000
O3445       O  0.82307580  0.81727675  0.05591630    -0.81400
C3446       C  0.81541167  0.79847572  0.07144823     0.94100
O3447       O  0.75011417  0.79616962  0.92622576    -0.81400
Mg3448     Mg  0.69942717  0.68568652  0.97283411     1.58200
O3449       O  0.84968127  0.84052844  0.00977348    -0.79700
O3450       O  0.65242995  0.65476998  0.02259320    -0.81400
O3451       O  0.52375396  0.71588173  0.99483882    -0.87000
C3452       C  0.97210062  0.73332790  0.95253461     0.89000
Mg3453     Mg  0.50789627  0.69619867  0.02655193     1.58100
O3454       O  0.53177307  0.79766818  0.97885991    -0.86700
O3455       O  0.56209930  0.75524348  0.97952622    -0.74000
C3456       C  0.95145618  0.77693318  0.07174351     0.94100
O3457       O  0.95096950  0.67866123  0.98965183    -0.73900
O3458       O  0.94750959  0.75005045  0.07217875    -0.81400
Mg3459     Mg  0.99314821  0.69241950  0.96811958     1.58000
C3460       C  0.50980141  0.86168814  0.00535510     0.94000
O3461       O  0.53006427  0.70006152  0.94295585    -0.79600
H3462       H  0.57599554  0.82473789  0.98602322    -0.05000
C3463       C  0.94670378  0.76270137  0.00736752     0.89000
O3464       O  0.53315572  0.74316579  0.04295359    -0.74100
O3465       O  0.99583614  0.73476196  0.95910169    -0.86900
O3466       O  0.51047273  0.84939881  0.98747605    -0.79700
C3467       C  0.52232803  0.81754213  0.92542105     0.94100
C3468       C  0.54573515  0.71883757  0.92804353     0.94000
Mg3469     Mg  0.50449433  0.80368511  0.03218228     1.58000
O3470       O  0.96630286  0.79529944  0.05642533    -0.79600
O3471       O  0.54719116  0.81786585  0.01106639    -0.73900
O3472       O  0.53009782  0.79720342  0.92680509    -0.79700
O3473       O  0.99157506  0.64813855  0.97737711    -0.81400
O3474       O  0.96970068  0.70023689  0.07377666    -0.79700
C3475       C  0.55256035  0.81400197  0.99154395     0.88400
O3476       O  0.50253100  0.76177320  0.04115307    -0.86900
O3477       O  0.97442935  0.78035435  0.00525201    -0.87000
O3478       O  0.93641617  0.74074028  0.02070529    -0.74100
Mg3479     Mg  0.54165617  0.77318889  0.95423252     1.58000
O3480       O  0.50887161  0.82266147  0.94091648    -0.81400
H3481       H  0.56717624  0.72953108  0.00246123    -0.05200
O3482       O  0.96691006  0.69890064  0.02176812    -0.86700
H3483       H  0.92258170  0.67182316  0.01495503    -0.05000
H3484       H  0.54284784  0.78358934  0.05637163    -0.05200
C3485       C  0.94592622  0.68252359  0.00924253     0.88400
C3486       C  0.55153234  0.73305776  0.99264647     0.89000
C3487       C  0.52657914  0.76361607  0.04743244     0.89000
H3488       H  0.93085630  0.76569240  0.99738120    -0.05100
O3489       O  0.96580878  0.75400276  0.95691716    -0.74200
Mg3490     Mg  0.95715305  0.72331297  0.04627960     1.58000
H3491       H  0.95588794  0.71357264  0.94337833    -0.05100
C3492       C  0.98821384  0.63492835  0.99551682     0.94000
O3493       O  0.99083773  0.67476925  0.05962136    -0.81400
C3494       C  0.97773059  0.68010528  0.07523498     0.94100
O3495       O  0.55125741  0.74631542  0.92824106    -0.81400
Mg3496     Mg  0.99090401  0.80072385  0.97374943     1.58200
O3497       O  0.98775838  0.64765284  0.01320813    -0.79700
O3498       O  0.50599812  0.84786396  0.02324813    -0.81400
O3499       O  0.64174840  0.52547897  0.67171039    -0.87000
C3500       C  0.69675457  0.59824465  0.71061177     0.89000
Mg3501     Mg  0.65665712  0.52115251  0.63997689     1.58100
O3502       O  0.63653550  0.60203308  0.68512407    -0.86700
O3503       O  0.60469411  0.52973741  0.68631004    -0.74000
C3504       C  0.71184722  0.65490788  0.59369154     0.94100
O3505       O  0.71571953  0.55988204  0.67552959    -0.73900
O3506       O  0.71597329  0.63228579  0.59467443    -0.81400
Mg3507     Mg  0.67398432  0.53426321  0.69771555     1.58000
C3508       C  0.65559058  0.68667348  0.65855457     0.94000
O3509       O  0.63808296  0.50762875  0.72432053    -0.79600
H3510       H  0.59183445  0.58619017  0.68079906    -0.05000
C3511       C  0.71972853  0.65077683  0.65770606     0.89000
O3512       O  0.63130268  0.54311336  0.62410798    -0.74100
O3513       O  0.67300308  0.57543910  0.70446892    -0.86900
O3514       O  0.65464937  0.67350705  0.67632756    -0.79700
C3515       C  0.64688051  0.63088549  0.73811347     0.94100
C3516       C  0.62368469  0.51351805  0.73873793     0.94000
Mg3517     Mg  0.66075140  0.63345962  0.63306603     1.58000
O3518       O  0.69823762  0.66085534  0.60858804    -0.79600
O3519       O  0.61820678  0.60689750  0.65445537    -0.73900
O3520       O  0.64653398  0.60574487  0.73685501    -0.79700
O3521       O  0.67383159  0.99053576  0.68932673    -0.81400
O3522       O  0.69126084  0.56283502  0.59331921    -0.79700
C3523       C  0.61458898  0.59798484  0.67395665     0.88400
O3524       O  0.66186060  0.59245022  0.62603175    -0.86900
O3525       O  0.69227086  0.64236975  0.65937955    -0.87000
O3526       O  0.72906690  0.63696019  0.64550352    -0.74100
Mg3527     Mg  0.62832779  0.56957547  0.71027684     1.58000
O3528       O  0.65598777  0.64932508  0.72232789    -0.81400
H3529       H  0.59779984  0.49656508  0.66479381    -0.05200
O3530       O  0.69728736  0.56462445  0.64487240    -0.86700
H3531       H  0.74180616  0.57936609  0.64887597    -0.05000
H3532       H  0.62111876  0.57379998  0.61139857    -0.05200
C3533       C  0.71916768  0.56822826  0.65591090     0.88400
C3534       C  0.61417892  0.51615782  0.67401180     0.89000
C3535       C  0.63764912  0.57016251  0.61997012     0.89000
H3536       H  0.73611765  0.66977478  0.66739154    -0.05100
O3537       O  0.70182649  0.62502423  0.70684876    -0.74200
Mg3538     Mg  0.70658589  0.59804705  0.62062084     1.58000
H3539       H  0.71375134  0.59536931  0.71920832    -0.05100
C3540       C  0.67669503  0.98042160  0.67108126     0.94000
O3541       O  0.67298585  0.51628537  0.60647529    -0.81400
C3542       C  0.68421269  0.53516292  0.59091877     0.94100
O3543       O  0.61936207  0.53596806  0.73689372    -0.81400
Mg3544     Mg  0.67574962  0.64616191  0.69034065     1.58200
O3545       O  0.67717980  0.49336677  0.65344704    -0.79700
O3546       O  0.65996445  0.67703443  0.64061824    -0.81400
C3547       C  0.57876343  0.67379568  0.85188534     0.03600
C3548       C  0.60523175  0.67109007  0.85094342     0.03600
C3549       C  0.61289878  0.66202664  0.83171095    -0.16900
C3550       C  0.59472085  0.65528141  0.81327820     0.03600
C3551       C  0.56751947  0.65653945  0.81412189     0.03600
C3552       C  0.55978114  0.66591223  0.83344941    -0.16900
H3553       H  0.53910804  0.66732035  0.83408052     0.05700
H3554       H  0.63352702  0.66048764  0.83101028     0.05700
C3555       C  0.56546595  0.90564584  0.85512983     0.03600
C3556       C  0.59449940  0.93292022  0.85539537     0.03600
C3557       C  0.60410625  0.95184939  0.83700075    -0.16900
C3558       C  0.58579010  0.94432739  0.81846732     0.03600
C3559       C  0.55700555  0.91749209  0.81823625     0.03600
C3560       C  0.54697689  0.89861622  0.83652611    -0.16900
H3561       H  0.52509349  0.87765045  0.83592971     0.05700
H3562       H  0.62606998  0.97275226  0.83710536     0.05700
O3563       O  0.96628699  0.62415690  0.67405393    -0.87000
C3564       C  0.89666552  0.60406096  0.71640735     0.89000
Mg3565     Mg  0.96902221  0.64436493  0.64294847     1.58100
O3566       O  0.89327820  0.54144578  0.68866473    -0.86700
O3567       O  0.96598307  0.58461729  0.68795500    -0.74000
C3568       C  0.83206812  0.56258034  0.59870493     0.94100
O3569       O  0.93122769  0.66144076  0.68110258    -0.73900
O3570       O  0.85418635  0.58992525  0.59933841    -0.81400
Mg3571     Mg  0.95970643  0.64654169  0.70142384     1.58000
C3572       C  0.80786498  0.97552816  0.66234476     0.94000
O3573       O  0.98933349  0.63794736  0.72555434    -0.79600
H3574       H  0.91110604  0.51520631  0.68128336    -0.05000
C3575       C  0.84049459  0.57386958  0.66314716     0.89000
O3576       O  0.94764562  0.59788336  0.62609780    -0.74100
O3577       O  0.91954840  0.60373499  0.70975815    -0.86900
O3578       O  0.82061598  0.98778207  0.68031133    -0.79700
C3579       C  0.86523248  0.51987449  0.74215707     0.94100
C3580       C  0.98584040  0.61842997  0.73989954     0.94000
Mg3581     Mg  0.85897783  0.53530871  0.63659681     1.58000
O3582       O  0.82847294  0.54351495  0.61341896    -0.79600
O3583       O  0.88844347  0.52141705  0.65650132    -0.73900
O3584       O  0.89281432  0.54159671  0.74072637    -0.79700
O3585       O  0.50328739  0.68996438  0.69206383    -0.81400
O3586       O  0.92434276  0.63877042  0.59778363    -0.79700
C3587       C  0.89797186  0.52544633  0.67592051     0.88400
O3588       O  0.89817555  0.57819731  0.62878044    -0.86900
O3589       O  0.85108267  0.55666175  0.66414093    -0.87000
O3590       O  0.85212170  0.59699351  0.65086506    -0.74100
Mg3591     Mg  0.92748179  0.56563091  0.71324309     1.58000
O3592       O  0.84615261  0.51354172  0.72685423    -0.81400
H3593       H  0.99673330  0.61195252  0.66540362    -0.05200
O3594       O  0.92494904  0.64022949  0.64923755    -0.86700
H3595       H  0.90879999  0.66800693  0.65630545    -0.05000
H3596       H  0.91686574  0.55758283  0.61243251    -0.05200
C3597       C  0.92127847  0.65712151  0.66177518     0.88400
C3598       C  0.97738385  0.60745896  0.67544398     0.89000
C3599       C  0.92052084  0.57716264  0.62179855     0.89000
H3600       H  0.82142115  0.56961101  0.67341472    -0.05100
O3601       O  0.86981505  0.58255255  0.71214204    -0.74200
Mg3602     Mg  0.89011732  0.61588324  0.62519611     1.58000
H3603       H  0.89955071  0.62343362  0.72568206    -0.05100
C3604       C  0.51255742  0.70358542  0.67399071     0.94000
O3605       O  0.97211643  0.66555237  0.61003553    -0.81400
C3606       C  0.95235183  0.65870098  0.59511632     0.94100
O3607       O  0.96335513  0.59127196  0.73916707    -0.81400
Mg3608     Mg  0.84872927  0.53601249  0.69481762     1.58200
O3609       O  0.99681511  0.69287242  0.65674914    -0.79700
O3610       O  0.81693982  0.99013188  0.64465057    -0.81400
O3611       O  0.85837628  0.80698689  0.66141533    -0.87000
C3612       C  0.92788394  0.85878853  0.61920644     0.89000
Mg3613     Mg  0.85310627  0.82498024  0.69164670     1.58100
O3614       O  0.93479807  0.80256790  0.64788890    -0.86700
O3615       O  0.86224385  0.76930561  0.64782252    -0.74000
C3616       C  0.98812471  0.88724131  0.73823513     0.94100
O3617       O  0.88991060  0.87944812  0.65305031    -0.73900
O3618       O  0.96453483  0.88996360  0.73696923    -0.81400
Mg3619     Mg  0.86407389  0.83485939  0.63352239     1.58000
C3620       C  0.52114990  0.82950307  0.67487671     0.94000
O3621       O  0.83638676  0.79448772  0.61083712    -0.79600
H3622       H  0.91983114  0.75917559  0.65591754    -0.05000
C3623       C  0.98180808  0.88892075  0.67291159     0.89000
O3624       O  0.87624106  0.80283054  0.71037866    -0.74100
O3625       O  0.90610608  0.83529548  0.62658842    -0.86900
O3626       O  0.00581687  0.82405910  0.65745163    -0.79700
C3627       C  0.96435875  0.81075189  0.59416493     0.94100
C3628       C  0.84307538  0.78225545  0.59537425     0.94000
Mg3629     Mg  0.96716465  0.83400960  0.70009195     1.58000
O3630       O  0.99484562  0.87426578  0.72326043    -0.79600
O3631       O  0.94074373  0.78945072  0.68043436    -0.73900
O3632       O  0.93687753  0.80506731  0.59564443    -0.79700
O3633       O  0.81903165  0.83299845  0.64082381    -0.81400
O3634       O  0.89408868  0.86588645  0.73742352    -0.79700
C3635       C  0.93142474  0.78276914  0.66099701     0.88400
O3636       O  0.92534005  0.83396093  0.70721296    -0.86900
O3637       O  0.97302933  0.86143689  0.67199546    -0.87000
O3638       O  0.96878259  0.89913557  0.68513881    -0.74100
Mg3639     Mg  0.90125804  0.79085483  0.62280970     1.58000
O3640       O  0.98300235  0.82259675  0.60987903    -0.81400
H3641       H  0.83050694  0.76376466  0.67030162    -0.05200
O3642       O  0.89597083  0.86597397  0.68538488    -0.86700
H3643       H  0.91013698  0.90935703  0.67785484    -0.05000
H3644       H  0.90829300  0.79571708  0.72463396    -0.05200
C3645       C  0.89897526  0.88587705  0.67253045     0.88400
C3646       C  0.84938240  0.77947016  0.66025396     0.89000
C3647       C  0.90371850  0.81044303  0.71465354     0.89000
H3648       H  0.00062740  0.90455793  0.66279561    -0.05100
O3649       O  0.95533592  0.86593009  0.62319855    -0.74200
Mg3650     Mg  0.92987728  0.87843187  0.71029937     1.58000
H3651       H  0.92349176  0.87382171  0.60944005    -0.05100
C3652       C  0.80892245  0.83753544  0.65846374     0.94000
O3653       O  0.84776995  0.84540942  0.72285306    -0.81400
C3654       C  0.86622912  0.85927353  0.73830741     0.94100
O3655       O  0.86690905  0.77992474  0.59600068    -0.81400
Mg3656     Mg  0.97789876  0.84293291  0.64169137     1.58200
O3657       O  0.82339289  0.84194566  0.67618924    -0.79700
O3658       O  0.51204864  0.83553676  0.69242940    -0.81400
C3659       C  0.80745721  0.91996310  0.84903421     0.03600
C3660       C  0.80920298  0.89316355  0.84801368     0.03600
C3661       C  0.81980205  0.88625680  0.82917137    -0.16900
C3662       C  0.82871820  0.90552590  0.81105537     0.03600
C3663       C  0.82643717  0.93232415  0.81190860     0.03600
C3664       C  0.81563778  0.93904529  0.83094901    -0.16900
H3665       H  0.81445260  0.95976087  0.83193760     0.05700
H3666       H  0.82091951  0.86548056  0.82857311     0.05700
C3667       C  0.50539667  0.76648487  0.47921704     0.03600
C3668       C  0.50399169  0.73798997  0.47987065     0.03600
C3669       C  0.49592613  0.72147268  0.49922436    -0.16900
C3670       C  0.98944702  0.73274530  0.51802294     0.03600
C3671       C  0.99137812  0.76159124  0.51759046     0.03600
C3672       C  0.49916198  0.77794188  0.49805536    -0.16900
H3673       H  0.50095874  0.80014057  0.49758737     0.05700
H3674       H  0.49440905  0.69938602  0.49960559     0.05700
C3675       C  0.76036864  0.76755659  0.48181693     0.03600
C3676       C  0.73215995  0.74001997  0.48099897     0.03600
C3677       C  0.72394411  0.71912391  0.49793349    -0.16900
C3678       C  0.74317956  0.72582257  0.51592123     0.03600
C3679       C  0.77087278  0.75395228  0.51713659     0.03600
C3680       C  0.77949088  0.77447199  0.49988506    -0.16900
H3681       H  0.80093162  0.79589036  0.50058081     0.05700
H3682       H  0.70239001  0.69781212  0.49725671     0.05700
C3683       C  0.73299608  0.98395029  0.48056598     0.03600
C3684       C  0.76393217  0.99201587  0.48372807     0.03600
C3685       C  0.77855410  0.00573491  0.50330238    -0.16900
C3686       C  0.76289792  0.51109643  0.51994634     0.03600
C3687       C  0.73193179  0.50272274  0.51697103     0.03600
C3688       C  0.71729124  0.98921318  0.49732381    -0.16900
H3689       H  0.69376686  0.98348878  0.49487821     0.05700
H3690       H  0.80215419  0.01173314  0.50578249     0.05700
C3691       C  0.49733971  0.52537870  0.99938790     0.03600
C3692       C  0.52645549  0.52846183  0.00237349     0.03600
C3693       C  0.52938613  0.00219436  0.00396043     0.03600
C3694       C  0.50331230  0.97286754  0.00230943     0.03600
C3695       C  0.97430256  0.96986859  0.99906843     0.03600
C3696       C  0.97121037  0.99599055  0.99790565     0.03600
C3697       C  0.83793968  0.69550060  0.33661794     0.03600
C3698       C  0.86414087  0.69275475  0.33346174     0.03600
C3699       C  0.86128078  0.66363546  0.33205519     0.03600
C3700       C  0.83214141  0.63715636  0.33387193     0.03600
C3701       C  0.80579785  0.63978031  0.33651456     0.03600
C3702       C  0.80870096  0.66896553  0.33774681     0.03600
C3703       C  0.63853889  0.83557136  0.66936662     0.03600
C3704       C  0.66750844  0.86223401  0.66798530     0.03600
C3705       C  0.69394417  0.85997435  0.66467625     0.03600
C3706       C  0.69140022  0.83103243  0.66257389     0.03600
C3707       C  0.66236056  0.80418693  0.66418477     0.03600
C3708       C  0.63600578  0.80657751  0.66789146     0.03600
C3709       C  0.56252206  0.82705050  0.65389454     0.25000
C3710       C  0.55116206  0.83057728  0.67397304    -0.23200
C3711       C  0.57012598  0.83790997  0.69244314     0.19900
C3712       C  0.59934149  0.84125908  0.69081310     0.24900
C3713       C  0.61009451  0.83731255  0.67080348    -0.23100
C3714       C  0.59163428  0.83060164  0.65238474     0.19800
F3715       F  0.60161614  0.82668473  0.63287553    -0.13100
F3716       F  0.54563872  0.82024895  0.63548292    -0.15400
F3717       F  0.61678572  0.84741119  0.70888087    -0.15400
F3718       F  0.56049472  0.84173040  0.71211754    -0.13100
C3719       C  0.76247834  0.82961578  0.67880833     0.25000
C3720       C  0.77863066  0.83575177  0.65903322    -0.23200
C3721       C  0.76444176  0.83788847  0.63998035     0.19900
C3722       C  0.73541671  0.83507483  0.64088689     0.24900
C3723       C  0.71984485  0.82945992  0.66071315    -0.23100
C3724       C  0.73342084  0.82640040  0.67954779     0.19800
F3725       F  0.71881699  0.82123232  0.69887755    -0.13100
F3726       F  0.77448578  0.82620166  0.69754196    -0.15400
F3727       F  0.72274601  0.83844675  0.62248958    -0.15400
F3728       F  0.77879416  0.84323617  0.62054195    -0.13100
C3729       C  0.86397112  0.89034961  0.79395818     0.25000
C3730       C  0.83960089  0.89605770  0.79177357    -0.23200
C3731       C  0.82348188  0.88884173  0.77210903     0.19900
C3732       C  0.83149423  0.87601739  0.75497496     0.24900
C3733       C  0.85584711  0.87008932  0.75717475    -0.23100
C3734       C  0.87204457  0.87758394  0.77689853     0.19800
F3735       F  0.89554190  0.87223251  0.77984656    -0.13100
F3736       F  0.87987373  0.89696047  0.81282988    -0.15400
F3737       F  0.81575747  0.87004679  0.73607271    -0.15400
F3738       F  0.79934374  0.89331708  0.76969717    -0.13100
C3739       C  0.83466472  0.76786274  0.55582927     0.25000
C3740       C  0.82365243  0.77274037  0.57560662    -0.23200
C3741       C  0.79548552  0.77222314  0.57560329     0.19900
C3742       C  0.77913678  0.76745176  0.55639899     0.24900
C3743       C  0.79011970  0.76246031  0.53685176    -0.23100
C3744       C  0.81801960  0.76283935  0.53665127     0.19800
F3745       F  0.82884504  0.75777884  0.51790596    -0.13100
F3746       F  0.86190423  0.76871464  0.55482440    -0.15400
F3747       F  0.75241688  0.76768870  0.55686362    -0.15400
F3748       F  0.78372439  0.77662554  0.59414060    -0.13100
C3749       C  0.99679585  0.79343074  0.57449416     0.25000
C3750       C  0.97370774  0.80129788  0.57401479    -0.23200
C3751       C  0.95723120  0.79669198  0.55459565     0.19900
C3752       C  0.96315344  0.78396621  0.53639676     0.24900
C3753       C  0.98556932  0.77536222  0.53709535    -0.23100
C3754       C  0.00271041  0.78071481  0.55620688     0.19800
F3755       F  0.52529282  0.77367265  0.55720490    -0.13100
F3756       F  0.51278425  0.79670593  0.59295617    -0.15400
F3757       F  0.94631838  0.77926319  0.51816575    -0.15400
F3758       F  0.93503265  0.80420624  0.55321372    -0.13100
C3759       C  0.77001383  0.92744598  0.68178979     0.25000
C3760       C  0.78052874  0.94419245  0.66233783    -0.23200
C3761       C  0.76289040  0.93174454  0.64333918     0.19900
C3762       C  0.73510400  0.90414566  0.64405329     0.24900
C3763       C  0.72449825  0.88819983  0.66358699    -0.23100
C3764       C  0.74242259  0.89970921  0.68231162     0.19800
F3765       F  0.73266506  0.88449026  0.70134510    -0.13100
F3766       F  0.78587885  0.93819142  0.70056886    -0.15400
F3767       F  0.71813451  0.89326499  0.62572803    -0.15400
F3768       F  0.77182160  0.94667790  0.62413941    -0.13100
C3769       C  0.58932975  0.76319056  0.65101382     0.25000
C3770       C  0.60513265  0.77888343  0.66970975    -0.23200
C3771       C  0.59016129  0.77049537  0.68982067     0.19900
C3772       C  0.55973885  0.74684787  0.69123035     0.24900
C3773       C  0.54355786  0.73114063  0.67245571    -0.23100
C3774       C  0.55885347  0.73973851  0.65228642     0.19800
F3775       F  0.54470519  0.72496116  0.63373259    -0.13100
F3776       F  0.60328229  0.77108064  0.63139059    -0.15400
F3777       F  0.54619507  0.73942141  0.71100307    -0.15400
F3778       F  0.60506312  0.78543032  0.70812774    -0.13100
C3779       C  0.81548623  0.96185125  0.78443421     0.25000
C3780       C  0.83635048  0.95465459  0.79392975    -0.23200
C3781       C  0.86713068  0.97082442  0.78753658     0.19900
C3782       C  0.87675429  0.99323054  0.77149340     0.24900
C3783       C  0.85580181  0.49967197  0.76135384    -0.23100
C3784       C  0.82496268  0.98395489  0.76818756     0.19800
F3785       F  0.80412320  0.99000734  0.75914343    -0.13100
F3786       F  0.78575926  0.94714729  0.79076253    -0.15400
F3787       F  0.90654731  0.50728597  0.76516822    -0.15400
F3788       F  0.88799908  0.96524797  0.79708729    -0.13100
C3789       C  0.77044352  0.50846861  0.55982478     0.25000
C3790       C  0.77919916  0.52519072  0.54049180    -0.23200
C3791       C  0.80358690  0.55534661  0.54079418     0.19900
C3792       C  0.81959745  0.56839209  0.56003386     0.24900
C3793       C  0.81151039  0.55137294  0.57942926    -0.23100
C3794       C  0.78606057  0.52148286  0.57913176     0.19800
F3795       F  0.77681209  0.50424254  0.59736193    -0.13100
F3796       F  0.74755122  0.47896064  0.55983789    -0.15400
F3797       F  0.84387868  0.59718319  0.55932437    -0.15400
F3798       F  0.81223070  0.57200735  0.52229518    -0.13100
C3799       C  0.99070766  0.68667446  0.56577542     0.25000
C3800       C  0.96140275  0.67586485  0.57456374    -0.23200
C3801       C  0.94112236  0.68330412  0.56426986     0.19900
C3802       C  0.95030522  0.70188806  0.54595233     0.24900
C3803       C  0.97980089  0.71323673  0.53752024    -0.23100
C3804       C  0.49970668  0.70486708  0.54719741     0.19800
F3805       F  0.52802158  0.71485306  0.53886024    -0.13100
F3806       F  0.51055970  0.67935813  0.57501601    -0.15400
F3807       F  0.93029348  0.70861999  0.53631513    -0.15400
F3808       F  0.91272967  0.67354359  0.57239874    -0.13100
C3809       C  0.53260525  0.89318621  0.76040269     0.25000
C3810       C  0.50696619  0.89710741  0.75835053    -0.23200
C3811       C  0.99747735  0.90695543  0.77671892     0.19900
C3812       C  0.51296862  0.91235525  0.79646060     0.24900
C3813       C  0.53826582  0.90823675  0.79827505    -0.23100
C3814       C  0.54786153  0.89849961  0.78018174     0.19800
F3815       F  0.57225895  0.89426792  0.78169834    -0.13100
F3816       F  0.54287625  0.88381389  0.74339298    -0.15400
F3817       F  0.00369644  0.92223217  0.81376037    -0.15400
F3818       F  0.97292700  0.91100160  0.77577967    -0.13100
C3819       C  0.54803369  0.66861556  0.78047715     0.25000
C3820       C  0.54661424  0.64703122  0.79524669    -0.23200
C3821       C  0.52572450  0.61606426  0.79168655     0.19900
C3822       C  0.00636685  0.60667383  0.77360331     0.24900
C3823       C  0.50772691  0.62817140  0.75849132    -0.23100
C3824       C  0.52893423  0.65937769  0.76223613     0.19800
F3825       F  0.53083830  0.68120201  0.74858815    -0.13100
F3826       F  0.56794038  0.69872090  0.78376063    -0.15400
F3827       F  0.98615848  0.57648271  0.77108275    -0.15400
F3828       F  0.02392547  0.59487565  0.80590954    -0.13100
C3829       C  0.66041058  0.73383295  0.64078168     0.25000
C3830       C  0.65385980  0.71522476  0.65929506    -0.23200
C3831       C  0.64899470  0.72599581  0.67920039     0.19900
C3832       C  0.65209476  0.75491069  0.68072043     0.24900
C3833       C  0.65941946  0.77356148  0.66240613    -0.23100
C3834       C  0.66299894  0.76260667  0.64236193     0.19800
F3835       F  0.66902973  0.77984411  0.62427390    -0.13100
F3836       F  0.66512551  0.72467827  0.62119155    -0.15400
F3837       F  0.64855034  0.76501878  0.70028176    -0.15400
F3838       F  0.64186429  0.70891545  0.69746334    -0.13100
C3839       C  0.66363826  0.90439053  0.65055646     0.25000
C3840       C  0.67023107  0.89269586  0.66896681    -0.23200
C3841       C  0.68066971  0.91053780  0.68784486     0.19900
C3842       C  0.68426753  0.93974264  0.68834657     0.24900
C3843       C  0.67698449  0.95135445  0.67002366    -0.23100
C3844       C  0.66681086  0.93331635  0.65104222     0.19800
F3845       F  0.65870030  0.94303861  0.63310477    -0.13100
F3846       F  0.65391532  0.88762586  0.63207423    -0.15400
F3847       F  0.69478336  0.95656524  0.70675702    -0.15400
F3848       F  0.68704097  0.89950238  0.70586891    -0.13100
C3849       C  0.59076987  0.99541013  0.77214393     0.25000
C3850       C  0.61325165  0.99497310  0.75883580    -0.23200
C3851       C  0.62783830  0.97911834  0.76612519     0.19900
C3852       C  0.61990879  0.96392233  0.78604295     0.24900
C3853       C  0.59716031  0.96402957  0.79899202    -0.23100
C3854       C  0.58291975  0.98017055  0.79202048     0.19800
F3855       F  0.56114578  0.98092321  0.80444112    -0.13100
F3856       F  0.57606544  0.01032417  0.76586442    -0.15400
F3857       F  0.63385107  0.94832343  0.79245515    -0.15400
F3858       F  0.65030372  0.97882809  0.75425812    -0.13100
C3859       C  0.62219429  0.67135205  0.77809924     0.25000
C3860       C  0.60590537  0.64828878  0.79328126    -0.23200
C3861       C  0.60424421  0.62006189  0.79092956     0.19900
C3862       C  0.61843385  0.61472743  0.77342741     0.24900
C3863       C  0.63468680  0.63772612  0.75788855    -0.23100
C3864       C  0.63639931  0.66616963  0.76050295     0.19800
F3865       F  0.65199709  0.68914464  0.74618933    -0.13100
F3866       F  0.62514531  0.69926403  0.78072991    -0.15400
F3867       F  0.61579632  0.58682812  0.77165778    -0.15400
F3868       F  0.58910558  0.59774131  0.80578473    -0.13100
C3869       C  0.72347483  0.54034648  0.53730550     0.25000
C3870       C  0.71548221  0.50997111  0.53373204    -0.23200
C3871       C  0.69412621  0.98740216  0.54739443     0.19900
C3872       C  0.68269796  0.49506816  0.56560251     0.24900
C3873       C  0.69190258  0.52582706  0.56995749    -0.23100
C3874       C  0.71173888  0.54825273  0.55507277     0.19800
F3875       F  0.72139138  0.57822780  0.55825601    -0.13100
F3876       F  0.74379995  0.56262458  0.52401652    -0.15400
F3877       F  0.66341668  0.97280247  0.57909813    -0.15400
F3878       F  0.68590464  0.95780146  0.54410058    -0.13100
C3879       C  0.74432583  0.67585944  0.56053329     0.25000
C3880       C  0.72052238  0.67328097  0.57380995    -0.23200
C3881       C  0.70257813  0.68568488  0.56674242     0.19900
C3882       C  0.70874190  0.70091712  0.54705004     0.24900
C3883       C  0.73319612  0.70449943  0.53427404    -0.23100
C3884       C  0.75057041  0.69134466  0.54084916     0.19800
F3885       F  0.77396474  0.69411149  0.52839300    -0.13100
F3886       F  0.76188629  0.66394844  0.56678554    -0.15400
F3887       F  0.69167485  0.71341328  0.54087298    -0.15400
F3888       F  0.67857355  0.68254797  0.57865105    -0.13100
C3889       C  0.98657938  0.58933129  0.97739356     0.25000
C3890       C  0.98729769  0.60506206  0.99649318    -0.23200
C3891       C  0.49052264  0.59355603  0.01658060     0.19900
C3892       C  0.49391038  0.56787169  0.01739822     0.24900
C3893       C  0.99390349  0.55286067  0.99832569    -0.23100
C3894       C  0.98974610  0.56346262  0.97836152     0.19800
F3895       F  0.98933536  0.54903116  0.95971851    -0.13100
F3896       F  0.98338770  0.59920100  0.95767913    -0.15400
F3897       F  0.49737956  0.55768435  0.03690576    -0.15400
F3898       F  0.49145922  0.60763126  0.03554035    -0.13100
C3899       C  0.00559993  0.90396568  0.02401205     0.25000
C3900       C  0.51131493  0.89191695  0.00503428    -0.23200
C3901       C  0.51539436  0.90767209  0.98532894     0.19900
C3902       C  0.51292036  0.93392753  0.98456839     0.24900
C3903       C  0.50654247  0.94524711  0.00337609    -0.23100
C3904       C  0.00330877  0.93034584  0.02313643     0.19800
F3905       F  0.99745515  0.94111469  0.04158654    -0.13100
F3906       F  0.00126364  0.88981002  0.04340320    -0.15400
F3907       F  0.51624465  0.94809915  0.96530840    -0.15400
F3908       F  0.52110913  0.89741535  0.96657034    -0.13100
C3909       C  0.51498188  0.85183745  0.89960367     0.25000
C3910       C  0.53165614  0.83777347  0.90604933    -0.23200
C3911       C  0.55950641  0.84616008  0.89543356     0.19900
C3912       C  0.57073360  0.86855908  0.87925409     0.24900
C3913       C  0.55435729  0.88299601  0.87315868    -0.23100
C3914       C  0.52607548  0.87397007  0.88322657     0.19800
F3915       F  0.50938103  0.88702119  0.87742324    -0.13100
F3916       F  0.98784992  0.84413673  0.90915098    -0.15400
F3917       F  0.59749163  0.87584706  0.86930333    -0.15400
F3918       F  0.57660739  0.83357349  0.90128956    -0.13100
C3919       C  0.58179772  0.72667531  0.89700978     0.25000
C3920       C  0.55564586  0.70726519  0.90925613    -0.23200
C3921       C  0.53752321  0.67659521  0.90253053     0.19900
C3922       C  0.54502998  0.66588171  0.88391333     0.24900
C3923       C  0.57100538  0.68530694  0.87172238    -0.23100
C3924       C  0.58952652  0.71570969  0.87854689     0.19800
F3925       F  0.61481700  0.73496487  0.86703849    -0.13100
F3926       F  0.59998623  0.75622673  0.90294581    -0.15400
F3927       F  0.52695002  0.63636508  0.87781031    -0.15400
F3928       F  0.51172004  0.65710382  0.91348018    -0.13100
C3929       C  0.59461411  0.60052534  0.02373798     0.25000
C3930       C  0.60779117  0.61677193  0.00442983    -0.23200
C3931       C  0.59263846  0.60421337  0.98460498     0.19900
C3932       C  0.56606029  0.57568442  0.98405991     0.24900
C3933       C  0.55394040  0.55921455  0.00320536    -0.23100
C3934       C  0.56796251  0.57200987  0.02306043     0.19800
F3935       F  0.55597984  0.55666246  0.04180153    -0.13100
F3936       F  0.60784649  0.61169414  0.04329629    -0.15400
F3937       F  0.55255725  0.56369223  0.96471151    -0.15400
F3938       F  0.60387669  0.61898776  0.96556785    -0.13100
C3939       C  0.93728183  0.92500224  0.97707261     0.25000
C3940       C  0.94699234  0.93923644  0.99731341    -0.23200
C3941       C  0.93062204  0.92445859  0.01595270     0.19900
C3942       C  0.90428534  0.89593615  0.01442435     0.24900
C3943       C  0.89348328  0.88177854  0.99399713    -0.23100
C3944       C  0.91062957  0.89656908  0.97535071     0.19800
F3945       F  0.90143408  0.88389579  0.95540346    -0.13100
F3946       F  0.95337499  0.93896781  0.95893377    -0.15400
F3947       F  0.88890484  0.88287915  0.03300423    -0.15400
F3948       F  0.93985537  0.93801796  0.03565274    -0.13100
C3949       C  0.81535534  0.85351204  0.89776299     0.25000
C3950       C  0.78505715  0.83880618  0.90557061    -0.23200
C3951       C  0.76246686  0.84072029  0.89351993     0.19900
C3952       C  0.77009107  0.85730045  0.87426278     0.24900
C3953       C  0.80041688  0.87245878  0.86681447    -0.23100
C3954       C  0.82289694  0.87010117  0.87849594     0.19800
F3955       F  0.85233240  0.88456846  0.87150148    -0.13100
F3956       F  0.83757486  0.85120667  0.90844036    -0.15400
F3957       F  0.74790009  0.85879373  0.86291717    -0.15400
F3958       F  0.73305480  0.82689274  0.90051169    -0.13100
C3959       C  0.67580562  0.70740457  0.88597544     0.25000
C3960       C  0.66553234  0.68937036  0.90483013    -0.23200
C3961       C  0.63524198  0.66457313  0.90542549     0.19900
C3962       C  0.61553884  0.65873224  0.88794028     0.24900
C3963       C  0.62564006  0.67754495  0.86965775    -0.23100
C3964       C  0.65601625  0.70143834  0.86856735     0.19800
F3965       F  0.66631529  0.71939736  0.85071298    -0.13100
F3966       F  0.70483652  0.73122822  0.88444457    -0.15400
F3967       F  0.58661336  0.63459049  0.88879593    -0.15400
F3968       F  0.62416460  0.64658743  0.92320035    -0.13100
C3969       C  0.90042199  0.99797187  0.01420559     0.25000
C3970       C  0.88636056  0.49606691  0.99401868    -0.23200
C3971       C  0.89924384  0.49118823  0.97520263     0.19900
C3972       C  0.92625433  0.48993594  0.97649520     0.24900
C3973       C  0.94063671  0.49320293  0.99654147    -0.23100
C3974       C  0.92714864  0.99645522  0.01538783     0.19800
F3975       F  0.94034995  0.99885630  0.03499501    -0.13100
F3976       F  0.88836458  0.00114487  0.03301363    -0.15400
F3977       F  0.93882484  0.48632194  0.95810930    -0.15400
F3978       F  0.88597192  0.48786249  0.95551339    -0.13100
C3979       C  0.57642052  0.50786730  0.98684667     0.25000
C3980       C  0.55991392  0.00496694  0.00569858    -0.23200
C3981       C  0.57091149  0.00144080  0.02571313     0.19900
C3982       C  0.59783037  0.99998102  0.02675401     0.24900
C3983       C  0.61398420  0.00168540  0.00767622    -0.23100
C3984       C  0.60297624  0.00593167  0.98768345     0.19800
F3985       F  0.61827623  0.50924858  0.96888275    -0.13100
F3986       F  0.56611460  0.51142605  0.96738473    -0.15400
F3987       F  0.60767107  0.99633110  0.04636720    -0.15400
F3988       F  0.55520337  0.99880327  0.04418378    -0.13100
C3989       C  0.60585781  0.94866787  0.89452116     0.25000
C3990       C  0.61533287  0.94307615  0.87448886    -0.23200
C3991       C  0.64585074  0.94994703  0.87213813     0.19900
C3992       C  0.66636889  0.96179608  0.88952173     0.24900
C3993       C  0.65691096  0.96734237  0.90963160    -0.23100
C3994       C  0.62638309  0.96064652  0.91190672     0.19800
F3995       F  0.61602414  0.96477227  0.93119429    -0.13100
F3996       F  0.57687726  0.94319637  0.89714534    -0.15400
F3997       F  0.69558635  0.96808116  0.88659060    -0.15400
F3998       F  0.65577119  0.94500369  0.85293249    -0.13100
C3999       C  0.76888537  0.92544944  0.87079715     0.25000
C4000       C  0.79785532  0.92833707  0.86930870    -0.23200
C4001       C  0.81604880  0.93528248  0.88794231     0.19900
C4002       C  0.80510852  0.93838663  0.90798859     0.24900
C4003       C  0.77575253  0.93508418  0.90976446    -0.23100
C4004       C  0.75778042  0.92857125  0.89081389     0.19800
F4005       F  0.72951855  0.92548038  0.89146519    -0.13100
F4006       F  0.75092249  0.91857092  0.85293300    -0.15400
F4007       F  0.82358450  0.94502560  0.92554264    -0.15400
F4008       F  0.84443592  0.93875147  0.88670468    -0.13100
C4009       C  0.93518999  0.82939830  0.10663626     0.25000
C4010       C  0.92732923  0.81419264  0.12663199    -0.23200
C4011       C  0.92583327  0.78586098  0.12821426     0.19900
C4012       C  0.93231130  0.77304365  0.11023016     0.24900
C4013       C  0.94055468  0.78836863  0.09013710    -0.23100
C4014       C  0.94142190  0.81659062  0.08858078     0.19800
F4015       F  0.94879755  0.83224841  0.06964201    -0.13100
F4016       F  0.93782426  0.85724002  0.10471714    -0.15400
F4017       F  0.93143453  0.74606413  0.11279430    -0.15400
F4018       F  0.91810894  0.77055668  0.14729672    -0.13100
C4019       C  0.85470117  0.83837962  0.09619447     0.25000
C4020       C  0.83302846  0.80762147  0.09195049    -0.23200
C4021       C  0.83099015  0.78500937  0.10633299     0.19900
C4022       C  0.85123930  0.79284514  0.12364748     0.24900
C4023       C  0.87350487  0.82326033  0.12715938    -0.23100
C4024       C  0.87451619  0.84610500  0.11386492     0.19800
F4025       F  0.89520417  0.87584730  0.11776886    -0.13100
F4026       F  0.85709422  0.86095336  0.08313141    -0.15400
F4027       F  0.84916672  0.77070117  0.13704319    -0.15400
F4028       F  0.81021448  0.75506174  0.10330407    -0.13100
C4029       C  0.81879172  0.55975008  0.35073346     0.25000
C4030       C  0.82511583  0.54909978  0.33136892    -0.23200
C4031       C  0.83204384  0.56714785  0.31252849     0.19900
C4032       C  0.83393717  0.59553890  0.31333834     0.24900
C4033       C  0.82907944  0.60654927  0.33288498    -0.23100
C4034       C  0.82093376  0.58826914  0.35145778     0.19800
F4035       F  0.81581088  0.59843574  0.37047910    -0.13100
F4036       F  0.81112438  0.54294000  0.36915525    -0.15400
F4037       F  0.84073770  0.61245464  0.29501662    -0.15400
F4038       F  0.83806672  0.55796757  0.29339838    -0.13100
C4039       C  0.85324978  0.77256520  0.35723585     0.25000
C4040       C  0.84593484  0.78419170  0.33889949    -0.23200
C4041       C  0.83668393  0.76646059  0.31973836     0.19900
C4042       C  0.83421332  0.73779594  0.31912763     0.24900
C4043       C  0.84103951  0.72618748  0.33748246    -0.23100
C4044       C  0.85097679  0.74387761  0.35645896     0.19800
F4045       F  0.85789794  0.73306689  0.37436774    -0.13100
F4046       F  0.86244025  0.78882367  0.37595670    -0.15400
F4047       F  0.82480612  0.72111113  0.30059377    -0.15400
F4048       F  0.82875287  0.77618334  0.30172143    -0.13100
C4049       C  0.81927254  0.00242559  0.43846397     0.25000
C4050       C  0.80856258  0.97203992  0.43203814    -0.23200
C4051       C  0.78487724  0.94837441  0.44418096     0.19900
C4052       C  0.77118846  0.95497584  0.46140234     0.24900
C4053       C  0.78090945  0.98525927  0.46706037    -0.23100
C4054       C  0.80576015  0.50886669  0.45605867     0.19800
F4055       F  0.81590483  0.53832985  0.46158117    -0.13100
F4056       F  0.84238383  0.52584437  0.42760909    -0.15400
F4057       F  0.74775852  0.93169919  0.47224071    -0.15400
F4058       F  0.77349703  0.91870421  0.43862255    -0.13100
C4059       C  0.78482421  0.79765684  0.42546467     0.25000
C4060       C  0.78223366  0.82409602  0.42576492    -0.23200
C4061       C  0.77353583  0.83233884  0.44525604     0.19900
C4062       C  0.76775810  0.81465899  0.46386240     0.24900
C4063       C  0.77033300  0.78847509  0.46327437    -0.23100
C4064       C  0.77910764  0.78021956  0.44409366     0.19800
F4065       F  0.78187581  0.75496928  0.44340960    -0.13100
F4066       F  0.79309047  0.78858345  0.40722702    -0.15400
F4067       F  0.75902590  0.82270421  0.48236178    -0.15400
F4068       F  0.77102504  0.85769802  0.44652550    -0.13100
C4069       C  0.86821740  0.83786961  0.23895535     0.25000
C4070       C  0.86457829  0.86361242  0.24038969    -0.23200
C4071       C  0.87377775  0.88388825  0.22265703     0.19900
C4072       C  0.88704875  0.87899832  0.20437813     0.24900
C4073       C  0.89140408  0.85385461  0.20335951    -0.23100
C4074       C  0.88137085  0.83302505  0.22056482     0.19800
F4075       F  0.88381253  0.80762556  0.21938775    -0.13100
F4076       F  0.85990360  0.81774331  0.25555157    -0.15400
F4077       F  0.89595343  0.89901639  0.18766982    -0.15400
F4078       F  0.87032937  0.90875065  0.22300046    -0.13100
C4079       C  0.73341173  0.56931941  0.31743884     0.25000
C4080       C  0.71647915  0.55842436  0.33681515    -0.23200
C4081       C  0.72872243  0.57548002  0.35599319     0.19900
C4082       C  0.75752863  0.60203817  0.35589367     0.24900
C4083       C  0.77482246  0.61184183  0.33674678    -0.23100
C4084       C  0.76234852  0.59546247  0.31751822     0.19800
F4085       F  0.77831697  0.60485701  0.29870610    -0.13100
F4086       F  0.72264822  0.55408316  0.29843212    -0.15400
F4087       F  0.76891619  0.61780734  0.37462442    -0.15400
F4088       F  0.71301415  0.56633413  0.37492165    -0.13100
C4089       C  0.93405239  0.75961487  0.30836997     0.25000
C4090       C  0.95453750  0.77085740  0.32604668    -0.23200
C4091       C  0.94479314  0.75563349  0.34617596     0.19900
C4092       C  0.91530180  0.73068589  0.34861667     0.24900
C4093       C  0.89485416  0.72035902  0.33114708    -0.23100
C4094       C  0.90445549  0.73480825  0.31100289     0.19800
F4095       F  0.88514123  0.72462698  0.29378280    -0.13100
F4096       F  0.94226279  0.77294778  0.28859380    -0.15400
F4097       F  0.90656926  0.71664200  0.36814443    -0.15400
F4098       F  0.96350009  0.76508316  0.36374736    -0.13100
C4099       C  0.50170862  0.80871221  0.42987716     0.25000
C4100       C  0.53258587  0.82491505  0.42339170    -0.23200
C4101       C  0.55427746  0.82112407  0.43532563     0.19900
C4102       C  0.54525843  0.80157430  0.45315268     0.24900
C4103       C  0.51451825  0.78553217  0.45950157    -0.23100
C4104       C  0.99284022  0.78942429  0.44790418     0.19800
F4105       F  0.96305079  0.77443578  0.45407465    -0.13100
F4106       F  0.98008319  0.81163359  0.41886921    -0.15400
F4107       F  0.56665377  0.79861339  0.46443948    -0.15400
F4108       F  0.58417824  0.83560488  0.42940541    -0.13100
C4109       C  0.69007381  0.94254699  0.45905943     0.25000
C4110       C  0.71687423  0.97116007  0.45964457    -0.23200
C4111       C  0.72736156  0.98807857  0.44039984     0.19900
C4112       C  0.71093452  0.97694880  0.42104166     0.24900
C4113       C  0.68327608  0.94878961  0.42055934    -0.23100
C4114       C  0.67347856  0.93140427  0.43978005     0.19800
F4115       F  0.64692728  0.90427039  0.44033991    -0.13100
F4116       F  0.67957623  0.92560695  0.47736456    -0.15400
F4117       F  0.72172620  0.99427423  0.40292814    -0.15400
F4118       F  0.75273614  0.01616764  0.44055571    -0.13100
C4119       C  0.97281411  0.84546098  0.23387556     0.25000
C4120       C  0.98927078  0.87666504  0.23965478    -0.23200
C4121       C  0.98671696  0.89772361  0.22623868     0.19900
C4122       C  0.96785148  0.88777166  0.20785163     0.24900
C4123       C  0.95160403  0.85671591  0.20224876    -0.23100
C4124       C  0.95450492  0.83573003  0.21525228     0.19800
F4125       F  0.93923183  0.80565839  0.21003843    -0.13100
F4126       F  0.47510978  0.82429891  0.24583976    -0.15400
F4127       F  0.96573488  0.90854426  0.19527718    -0.15400
F4128       F  0.00234814  0.92795926  0.23091337    -0.13100
C4129       C  0.94244559  0.65369903  0.10660682     0.25000
C4130       C  0.96903514  0.66033972  0.09484825    -0.23200
C4131       C  0.98478770  0.64496390  0.10047599     0.19900
C4132       C  0.97383956  0.62312325  0.11705082     0.24900
C4133       C  0.94659479  0.61569062  0.12805874    -0.23100
C4134       C  0.93133696  0.63155487  0.12292088     0.19800
F4135       F  0.90580686  0.62590138  0.13397937    -0.13100
F4136       F  0.92638009  0.66777156  0.10180247    -0.15400
F4137       F  0.98961514  0.60883789  0.12215270    -0.15400
F4138       F  0.51081900  0.65103458  0.08995345    -0.13100
C4139       C  0.87410018  0.53694895  0.09030313     0.25000
C4140       C  0.84401822  0.53178755  0.09196216    -0.23200
C4141       C  0.83491741  0.53906270  0.11161872     0.19900
C4142       C  0.85529207  0.55104763  0.12908970     0.24900
C4143       C  0.88533177  0.55638716  0.12728775    -0.23100
C4144       C  0.89447234  0.54909828  0.10776337     0.19800
F4145       F  0.92298170  0.55307187  0.10574207    -0.13100
F4146       F  0.88423733  0.53109457  0.07155255    -0.15400
F4147       F  0.84571778  0.55765643  0.14782000    -0.15400
F4148       F  0.80620004  0.53443979  0.11403705    -0.13100
C4149       C  0.91354601  0.51661455  0.20769256     0.25000
C4150       C  0.90384656  0.53749787  0.20335740    -0.23200
C4151       C  0.88782107  0.54355701  0.21929542     0.19900
C4152       C  0.88198815  0.52927381  0.23952145     0.24900
C4153       C  0.89192162  0.50836694  0.24411543    -0.23100
C4154       C  0.90779011  0.50224555  0.22781920     0.19800
F4155       F  0.91751252  0.98195448  0.23111695    -0.13100
F4156       F  0.92915124  0.51055159  0.19246006    -0.15400
F4157       F  0.86622740  0.53568051  0.25440941    -0.15400
F4158       F  0.87839334  0.56386425  0.21539845    -0.13100
C4159       C  0.74124790  0.66556432  0.10602378     0.25000
C4160       C  0.71855182  0.65996773  0.09043690    -0.23200
C4161       C  0.68766738  0.63934429  0.09560662     0.19900
C4162       C  0.67983028  0.62488319  0.11575608     0.24900
C4163       C  0.70254080  0.63067441  0.13109312    -0.23100
C4164       C  0.73320607  0.65126070  0.12619223     0.19800
F4165       F  0.75544523  0.65726563  0.14094379    -0.13100
F4166       F  0.77131977  0.68493550  0.10188048    -0.15400
F4167       F  0.65003983  0.60478547  0.12021057    -0.15400
F4168       F  0.66485349  0.63350485  0.08140840    -0.13100
C4169       C  0.74834873  0.58281736  0.10721259     0.25000
C4170       C  0.72619260  0.56514212  0.09145126    -0.23200
C4171       C  0.69499159  0.55336210  0.09641687     0.19900
C4172       C  0.68628663  0.55931014  0.11642698     0.24900
C4173       C  0.70836407  0.57706722  0.13188825    -0.23100
C4174       C  0.73942455  0.58860191  0.12731411     0.19800
F4175       F  0.76107572  0.60575017  0.14221876    -0.13100
F4176       F  0.77862346  0.59453946  0.10322531    -0.15400
F4177       F  0.65613885  0.54792367  0.12072416    -0.15400
F4178       F  0.67264544  0.53517502  0.08224512    -0.13100
C4179       C  0.68635686  0.54769189  0.21840681     0.25000
C4180       C  0.66582586  0.55241811  0.20604608    -0.23200
C4181       C  0.63430428  0.53381512  0.20960177     0.19900
C4182       C  0.62342652  0.51107832  0.22549756     0.24900
C4183       C  0.64404653  0.00677113  0.23835276    -0.23100
C4184       C  0.67563305  0.52527313  0.23449726     0.19800
F4185       F  0.69642519  0.02197381  0.24636096    -0.13100
F4186       F  0.71693176  0.56509705  0.21500441    -0.15400
F4187       F  0.59277830  0.49409568  0.22871333    -0.15400
F4188       F  0.61399220  0.53735590  0.19738426    -0.13100
C4189       C  0.76132445  0.66192724  0.32025458     0.25000
C4190       C  0.78048563  0.67105921  0.33844283    -0.23200
C4191       C  0.77088042  0.67840944  0.35769723     0.19900
C4192       C  0.74200286  0.67583340  0.35888242     0.24900
C4193       C  0.72202154  0.66522160  0.34087049    -0.23100
C4194       C  0.73222377  0.65834435  0.32153511     0.19800
F4195       F  0.71407110  0.64793265  0.30372756    -0.13100
F4196       F  0.77061937  0.65567510  0.30126898    -0.15400
F4197       F  0.73385152  0.68398003  0.37759440    -0.15400
F4198       F  0.78916686  0.68738611  0.37547305    -0.13100
C4199       C  0.93446135  0.67084868  0.30926809     0.25000
C4200       C  0.94735751  0.66578408  0.32790043    -0.23200
C4201       C  0.93030189  0.65753235  0.34734479     0.19900
C4202       C  0.90172782  0.65544357  0.34828785     0.24900
C4203       C  0.88941165  0.66139505  0.32990859    -0.23100
C4204       C  0.90568321  0.66856442  0.31027972     0.19800
F4205       F  0.89386742  0.67384405  0.29217448    -0.13100
F4206       F  0.94990928  0.67864919  0.29020165    -0.15400
F4207       F  0.88637382  0.64842790  0.36739069    -0.15400
F4208       F  0.94098233  0.65096442  0.36551002    -0.13100
C4209       C  0.54568929  0.70996184  0.44437435     0.25000
C4210       C  0.52556976  0.69694807  0.42661378    -0.23200
C4211       C  0.49789225  0.69752559  0.42672278     0.19900
C4212       C  0.49112054  0.71150762  0.44376941     0.24900
C4213       C  0.51168061  0.72498927  0.46103207    -0.23100
C4214       C  0.53872014  0.72371522  0.46134070     0.19800
F4215       F  0.55862856  0.73615953  0.47811492    -0.13100
F4216       F  0.57244134  0.70982008  0.44533328    -0.15400
F4217       F  0.96430005  0.71160284  0.44354369    -0.15400
F4218       F  0.97758263  0.68522535  0.41014396    -0.13100
C4219       C  0.67870402  0.74427654  0.44004826     0.25000
C4220       C  0.67740979  0.72390068  0.42402543    -0.23200
C4221       C  0.69312169  0.70783662  0.42751744     0.19900
C4222       C  0.70976686  0.71214512  0.44651604     0.24900
C4223       C  0.71147790  0.73286928  0.46222833    -0.23100
C4224       C  0.69576934  0.74882736  0.45896457     0.19800
F4225       F  0.69714601  0.76893378  0.47409347    -0.13100
F4226       F  0.66391246  0.76013181  0.43725817    -0.15400
F4227       F  0.72484923  0.69657401  0.44938569    -0.15400
F4228       F  0.69170333  0.68720825  0.41281747    -0.13100
C4229       C  0.95759583  0.60711820  0.21930415     0.25000
C4230       C  0.96325597  0.59153704  0.20288066    -0.23200
C4231       C  0.98400405  0.58136106  0.20651445     0.19900
C4232       C  0.49898591  0.58673535  0.22647408     0.24900
C4233       C  0.99331960  0.60232851  0.24317615    -0.23100
C4234       C  0.97222721  0.61230894  0.23929480     0.19800
F4235       F  0.96620407  0.62787419  0.25457235    -0.13100
F4236       F  0.93749736  0.61703790  0.21599567    -0.15400
F4237       F  0.51911010  0.57673392  0.22931539    -0.15400
F4238       F  0.48929737  0.56577902  0.19085040    -0.13100
C4239       C  0.62783438  0.62478700  0.22265829     0.25000
C4240       C  0.64516904  0.63380819  0.24195468    -0.23200
C4241       C  0.67163884  0.63118888  0.24311473     0.19900
C4242       C  0.68034286  0.61969367  0.22561495     0.24900
C4243       C  0.66292769  0.61056286  0.20653749    -0.23100
C4244       C  0.63678808  0.61350118  0.20509643     0.19800
F4245       F  0.61979018  0.60521032  0.18667845    -0.13100
F4246       F  0.60223997  0.62693693  0.22069428    -0.15400
F4247       F  0.70629529  0.61812520  0.22713340    -0.15400
F4248       F  0.68882773  0.63897156  0.26140641    -0.13100
loop_ 
_geom_bond_atom_site_label_1 
_geom_bond_atom_site_label_2 
_geom_bond_distance 
_geom_bond_site_symmetry_2 
_ccdc_geom_bond_type 
O1           Mg3   2.152       .  S
O1           Mg9   2.156       .  S
O1           C36   1.235       .  S
C2           O15   1.233       .  S
C2           O39   1.268       .  A
C2           H41   1.081       .  S
Mg3          O32   2.160       .  S
Mg3          O47   2.284   1_455  S
Mg3          O43   2.269       .  S
Mg3          O14   2.302       .  S
O4          Mg46   2.160       .  S
O4          Mg29   2.144       .  S
O4           C25   1.236       .  S
O5           C36   1.270       .  A
O5          Mg29   2.304       .  S
C6            O8   1.271       .  A
C6           O20   1.270       .  A
C6         C1034   1.480       .  S
O7           C35   1.270       .  A
O7           Mg9   2.305       .  S
O8          Mg40   2.277       .  S
Mg9          O15   2.154       .  S
Mg9          O11   2.295       .  S
Mg9        O2147   2.283   1_455  S
C10          O48   1.269       .  A
C10          O16   1.272       .  A
C10        C1007   1.487       .  S
O11          C18   1.274       .  A
H12          C25   1.081       .  S
C13          O27   1.235       .  S
C13          O28   1.271       .  A
C13          H38   1.081       .  S
O14          C37   1.269       .  A
O15         Mg29   2.159       .  S
O16         Mg46   2.277       .  S
C17          O30   1.271       .  A
C17          O22   1.274       .  A
C17        C1054   1.490       .  S
C18          O45   1.269       .  A
C18        C3171   1.485   1_455  S
Mg19         O26   2.148       .  S
Mg19         O27   2.150       .  S
Mg19         O20   2.277       .  S
Mg19         O21   2.301       .  S
Mg19         O48   2.259       .  S
O21          C25   1.270       .  A
O22         Mg29   2.307       .  S
O23          C42   1.273       .  A
O23       Mg2133   2.283       .  S
O24          C44   1.274       .  A
O24         Mg40   2.295       .  S
O26         Mg40   2.146       .  S
O26          C37   1.234       .  S
O27         Mg46   2.143       .  S
O28         Mg40   2.309       .  S
Mg29         O45   2.246       .  S
O30         Mg46   2.263       .  S
H31          C36   1.081       .  S
O32         Mg40   2.155       .  S
O32          C35   1.235       .  S
H33          C35   1.081       .  S
H34          C37   1.081       .  S
O39         Mg46   2.296       .  S
C42        O2171   1.273       .  A
C42        C1014   1.488       .  S
O43          C44   1.271       .  A
C44        C1024   1.492       .  S
O47        C2166   1.273       .  A
C49        C1057   1.484       .  S
C49          C50   1.420       .  A
C49          C54   1.406       .  A
C50         C994   1.484       .  S
C50          C51   1.404       .  A
C51          H56   1.084       .  S
C51          C52   1.398       .  A
C52         C987   1.474       .  S
C52          C53   1.407       .  A
C53         C977   1.478       .  S
C53          C54   1.399       .  A
C54          H55   1.084       .  S
C57         C964   1.480       .  S
C57          C58   1.406       .  A
C57          C62   1.399       .  A
C58        C1044   1.475       .  S
C58          C59   1.399       .  A
C59          H64   1.084       .  S
C59          C60   1.406       .  A
C60         C947   1.490       .  S
C60          C61   1.425       .  A
C61         C957   1.489       .  S
C61          C62   1.409       .  A
C62          H63   1.084       .  S
O65         Mg67   2.145       .  S
O65         Mg73   2.159       .  S
O65         C100   1.234       .  S
C66          O79   1.235       .  S
C66         O103   1.269       .  A
C66         H105   1.081       .  S
Mg67         O96   2.161       .  S
Mg67        O107   2.251       .  S
Mg67         O78   2.303       .  S
Mg67       O1173   2.300       .  S
O68        Mg110   2.156       .  S
O68         Mg93   2.150       .  S
O68          C89   1.235       .  S
O69         C100   1.268       .  A
O69         Mg93   2.294       .  S
C70          O72   1.276       .  A
C70          O84   1.276       .  A
C70        C3058   1.493   1_455  S
O71          C99   1.271       .  A
O71         Mg73   2.307       .  S
O72        Mg104   2.289       .  S
Mg73         O79   2.143       .  S
Mg73         O75   2.317       .  S
Mg73       O1149   2.271       .  S
C74         O112   1.274       .  A
C74        O2204   1.272       .  A
C74         C904   1.493       .  S
O75          C82   1.277       .  A
H76          C89   1.081       .  S
C77          O91   1.233       .  S
C77          O92   1.269       .  A
C77         H102   1.081   1_455  S
O78         C101   1.270       .  A
O79         Mg93   2.163       .  S
O80        C2198   1.272       .  A
O80        Mg110   2.284   1_655  S
C81          O94   1.272       .  A
C81          O86   1.273       .  A
C81         C914   1.488       .  S
C82         O109   1.272       .  A
C82         C927   1.493       .  S
Mg83         O90   2.164       .  S
Mg83         O91   2.154       .  S
Mg83         O84   2.307       .  S
Mg83         O85   2.305       .  S
Mg83       O2236   2.287   1_455  S
O85          C89   1.270       .  A
O86         Mg93   2.291       .  S
O87         C106   1.272       .  A
O87       Mg1135   2.270   1_545  S
O88         C108   1.278       .  A
O88        Mg104   2.324       .  S
O90        Mg104   2.173       .  S
O90         C101   1.235       .  S
O91        Mg110   2.157       .  S
O92        Mg104   2.302       .  S
Mg93        O109   2.266       .  S
O94        Mg110   2.270       .  S
H95         C100   1.081       .  S
O96        Mg104   2.166       .  S
O96          C99   1.235       .  S
H97          C99   1.081       .  S
H98         C101   1.081       .  S
O103       Mg110   2.294       .  S
C106        O111   1.274       .  A
C106        C894   1.490       .  S
O107        C108   1.270       .  A
C108        C997   1.491       .  S
O111      Mg1129   2.299   1_545  S
O112      Mg2207   2.287       .  S
O113       Mg115   2.142       .  S
O113       Mg121   2.164       .  S
O113        C148   1.236       .  S
C114        O127   1.235       .  S
C114        O151   1.271       .  A
C114        H153   1.081       .  S
Mg115       O144   2.152       .  S
Mg115       O159   2.291       .  S
Mg115       O155   2.267       .  S
Mg115       O126   2.300       .  S
O116       Mg158   2.147       .  S
O116       Mg141   2.139       .  S
O116        C137   1.233       .  S
O117        C148   1.270       .  A
O117       Mg141   2.301       .  S
C118        O120   1.267       .  A
C118        O132   1.275       .  A
C118       C2029   1.490       .  S
O119        C147   1.266       .  A
O119       Mg121   2.290       .  S
O120       Mg152   2.233       .  S
Mg121       O127   2.162       .  S
Mg121       O135   2.282       .  S
Mg121       O123   2.274       .  S
C122        O160   1.271       .  A
C122       O1190   1.276       .  A
C122        C844   1.487       .  S
O123        C130   1.271       .  A
H124        C137   1.082       .  S
C125        O139   1.236       .  S
C125        O140   1.270       .  A
C125        H150   1.081       .  S
O126        C149   1.269       .  A
O127       Mg141   2.153       .  S
O128       C1184   1.276       .  A
O128       Mg158   2.305       .  S
C129        O142   1.274       .  A
C129        O134   1.273       .  A
C129        C864   1.489       .  S
C130        O157   1.269       .  A
C130        C874   1.482       .  S
Mg131       O138   2.142       .  S
Mg131       O139   2.173       .  S
Mg131       O132   2.311       .  S
Mg131       O133   2.296       .  S
Mg131      O1222   2.246       .  S
O133        C137   1.267       .  A
O134       Mg141   2.295       .  S
O135        C154   1.273       .  A
O136        C156   1.271       .  A
O136       Mg152   2.276       .  S
O138       Mg152   2.148       .  S
O138        C149   1.234       .  S
O139       Mg158   2.155       .  S
O140       Mg152   2.297       .  S
Mg141       O157   2.247       .  S
O142       Mg158   2.286       .  S
H143        C148   1.081       .  S
O144       Mg152   2.131       .  S
O144        C147   1.233       .  S
H145        C147   1.081       .  S
H146        C149   1.081       .  S
O151       Mg158   2.311       .  S
C154        O159   1.274       .  A
C154        C854   1.490       .  S
O155        C156   1.272       .  A
C156        C884   1.486       .  S
O160      Mg1193   2.247   1_545  S
C161        C887   1.478       .  S
C161        C162   1.413       .  A
C161        C166   1.395       .  A
C162        C937   1.485       .  S
C162        C163   1.411       .  A
C163        H168   1.084       .  S
C163        C164   1.411       .  A
C164        C824   1.494       .  S
C164        C165   1.415       .  A
C165        C837   1.469       .  S
C165        C166   1.395       .  A
C166        H167   1.085       .  S
O169       Mg171   2.145   1_554  S
O169      Mg1239   2.157       .  S
O169        C204   1.234       .  S
C170        O183   1.234       .  S
C170        O207   1.269       .  A
C170        H209   1.081       .  S
Mg171      O1262   2.158   1_545  S
Mg171       O182   2.301       .  S
Mg171      O1277   2.276   1_545  S
Mg171      O1273   2.263   1_545  S
O172       Mg197   2.148       .  S
O172      Mg1276   2.152   1_545  S
O172        C193   1.235       .  S
O173        C204   1.269       .  A
O173       Mg197   2.303       .  S
C174        O176   1.269       .  A
C174        O188   1.273       .  A
C174        C817   1.487       .  S
O175        C203   1.269   1_554  A
O175       Mg177   2.302       .  S
O176       Mg208   2.245       .  S
Mg177       O183   2.156       .  S
Mg177      O1231   2.157       .  S
Mg177       O191   2.282       .  S
Mg177      O1241   2.295       .  S
C178        O216   1.272       .  A
C178        O184   1.271   1_566  A
C178        C784   1.490       .  S
O179        C186   1.274       .  A
O179      Mg1239   2.294       .  S
H180        C193   1.082       .  S
C181        O195   1.235       .  S
C181        O196   1.271       .  A
C181        H206   1.081   1_556  S
O182        C205   1.269       .  A
O183      Mg1259   2.158       .  S
O184      Mg1276   2.278   1_545  S
C185        O198   1.271       .  A
C185        O190   1.273       .  A
C185        C954   1.491       .  S
C186        O213   1.269       .  A
C186        C984   1.483       .  S
Mg187       O194   2.156       .  S
Mg187      O1257   2.147       .  S
Mg187       O189   2.307   1_565  S
Mg187       O216   2.278       .  S
Mg187      O1250   2.296       .  S
O188      Mg1249   2.296       .  S
O189        C193   1.271   1_556  A
O190       Mg197   2.305       .  S
O191        C210   1.273       .  A
O192        C212   1.274       .  A
O192       Mg208   2.305       .  S
O194      Mg1270   2.151       .  S
O194        C205   1.234   1_565  S
O195       Mg214   2.150   1_556  S
O195      Mg1249   2.148       .  S
O196       Mg208   2.310       .  S
Mg197      O1245   2.158       .  S
Mg197       O213   2.246       .  S
O198      Mg1276   2.271   1_545  S
H199        C204   1.081   1_556  S
O200       Mg208   2.147       .  S
O200      Mg1233   2.159       .  S
O200        C203   1.235       .  S
H201        C203   1.081       .  S
H202        C205   1.081       .  S
O207       Mg214   2.301       .  S
Mg208      O1256   2.151       .  S
C210        O215   1.272   1_554  A
C210        C797   1.488       .  S
O211        C212   1.270       .  A
O211      Mg1233   2.264       .  S
C212        C807   1.486       .  S
Mg214      O1234   2.152       .  S
Mg214      O1246   2.278       .  S
Mg214      O1260   2.271       .  S
O215      Mg1233   2.276       .  S
O217       Mg219   2.135   1_556  S
O217       Mg225   2.167       .  S
O217        C252   1.234       .  S
C218        O231   1.236       .  S
C218        O255   1.272       .  A
C218        H257   1.081       .  S
Mg219       O248   2.148       .  S
Mg219       O263   2.269       .  S
Mg219       O259   2.259       .  S
Mg219       O230   2.296       .  S
O220       Mg262   2.145       .  S
O220       Mg245   2.145       .  S
O220        C241   1.233       .  S
O221        C252   1.268       .  A
O221       Mg245   2.292       .  S
C222        O224   1.268       .  A
C222        O236   1.274       .  A
C222        C974   1.487       .  S
O223        C251   1.267   1_556  A
O223       Mg225   2.291       .  S
O224       Mg256   2.235       .  S
Mg225       O231   2.154       .  S
Mg225       O239   2.279       .  S
Mg225       O227   2.295       .  S
C226        O264   1.271       .  A
C226        O232   1.274   1_554  A
C226        C744   1.488       .  S
O227        C234   1.274       .  A
H228        C241   1.081       .  S
C229        O243   1.235       .  S
C229        O244   1.268       .  A
C229        H254   1.081   1_554  S
O230        C253   1.269       .  A
O231       Mg245   2.157       .  S
O232       Mg262   2.299       .  S
C233        O246   1.268       .  A
C233        O238   1.272       .  A
C233        C774   1.484       .  S
C234        O261   1.270       .  A
C234        C764   1.478       .  S
Mg235       O242   2.130       .  S
Mg235       O243   2.165       .  S
Mg235       O236   2.303       .  S
Mg235       O237   2.299       .  S
Mg235       O264   2.249       .  S
O237        C241   1.268   1_554  A
O238       Mg245   2.286       .  S
O239        C258   1.274       .  A
O240        C260   1.269       .  A
O240       Mg256   2.263       .  S
O242       Mg256   2.148       .  S
O242        C253   1.235       .  S
O243       Mg262   2.134   1_554  S
O244       Mg256   2.292       .  S
Mg245       O261   2.245       .  S
O246       Mg262   2.245       .  S
H247        C252   1.081       .  S
O248       Mg256   2.129       .  S
O248        C251   1.233       .  S
H249        C251   1.081       .  S
H250        C253   1.081       .  S
O255       Mg262   2.311       .  S
C258        O263   1.271   1_556  A
C258        C757   1.487       .  S
O259        C260   1.270       .  A
C260        C834   1.481       .  S
O265       Mg267   2.162   1_556  S
O265      Mg2397   2.160   1_455  S
O265        C300   1.234       .  S
C266        O279   1.234       .  S
C266        O303   1.269       .  A
C266        H305   1.081       .  S
Mg267      O2420   2.166   1_455  S
Mg267       O278   2.296       .  S
Mg267      O2435   2.293   1_455  S
Mg267      O2431   2.271   1_455  S
O268       Mg293   2.173       .  S
O268      Mg2434   2.172   1_455  S
O268        C289   1.236       .  S
O269        C300   1.269       .  A
O269       Mg293   2.302       .  S
C270        O272   1.276       .  A
C270        O284   1.276       .  A
C270        C827   1.499       .  S
O271        C299   1.271   1_556  A
O271       Mg273   2.304       .  S
O272       Mg304   2.300       .  S
Mg273       O279   2.159       .  S
Mg273      O2389   2.160       .  S
Mg273       O287   2.282       .  S
Mg273      O2399   2.309       .  S
C274        O312   1.272       .  A
C274        O280   1.275   1_554  A
C274        C714   1.498       .  S
O275        C282   1.276       .  A
O275      Mg2397   2.309   1_455  S
H276        C289   1.081       .  S
C277        O291   1.235       .  S
C277        O292   1.270       .  A
C277        H302   1.081   1_554  S
O278        C301   1.269       .  A
O279      Mg2417   2.170       .  S
O280      Mg2434   2.310   1_455  S
C281        O294   1.273       .  A
C281        O286   1.279       .  A
C281        C724   1.492       .  S
C282        O309   1.278       .  A
C282        C734   1.501       .  S
Mg283       O290   2.153       .  S
Mg283      O2415   2.159   1_455  S
Mg283       O285   2.307       .  S
Mg283       O312   2.274       .  S
Mg283      O2408   2.308   1_455  S
O284      Mg2407   2.308       .  S
O285        C289   1.271   1_554  A
O286       Mg293   2.327       .  S
O287        C306   1.273       .  A
O288        C308   1.279       .  A
O288       Mg304   2.327       .  S
O290      Mg2428   2.163   1_455  S
O290        C301   1.235       .  S
O291       Mg310   2.165   1_554  S
O291      Mg2407   2.159       .  S
O292       Mg304   2.306       .  S
Mg293      O2403   2.170   1_455  S
Mg293       O309   2.307       .  S
O294      Mg2434   2.273   1_455  S
H295        C300   1.081   1_554  S
O296       Mg304   2.162       .  S
O296      Mg2391   2.166       .  S
O296        C299   1.236       .  S
H297        C299   1.081       .  S
H298        C301   1.081       .  S
O303       Mg310   2.298       .  S
Mg304      O2414   2.163       .  S
C306        O311   1.273   1_556  A
C306        C704   1.495       .  S
O307        C308   1.273       .  A
O307      Mg2391   2.271       .  S
C308        C944   1.493       .  S
Mg310      O2392   2.172       .  S
Mg310      O2404   2.311       .  S
Mg310      O2418   2.273       .  S
O311      Mg2391   2.293       .  S
O313       Mg315   2.149       .  S
O313       Mg321   2.169       .  S
O313        C348   1.235       .  S
C314        O327   1.236       .  S
C314        O351   1.272       .  A
C314        H353   1.081       .  S
Mg315       O344   2.151       .  S
Mg315       O359   2.289   1_545  S
Mg315       O355   2.285       .  S
Mg315       O326   2.299       .  S
O316       Mg358   2.142       .  S
O316       Mg341   2.150       .  S
O316        C337   1.233       .  S
O317        C348   1.269       .  A
O317       Mg341   2.295       .  S
C318        O320   1.268       .  A
C318        O332   1.272       .  A
C318        C694   1.470       .  S
O319        C347   1.267       .  A
O319       Mg321   2.295       .  S
O320       Mg352   2.235       .  S
Mg321       O327   2.156       .  S
Mg321       O323   2.316       .  S
Mg321      O1397   2.273   1_545  S
C322        O360   1.273       .  A
C322        O328   1.275       .  A
C322        C644   1.496       .  S
O323        C330   1.276       .  A
H324        C337   1.082       .  S
C325        O339   1.235       .  S
C325        O340   1.270       .  A
C325        H350   1.081       .  S
O326        C349   1.270       .  A
O327       Mg341   2.155       .  S
O328       Mg358   2.304       .  S
C329        O342   1.269       .  A
C329        O334   1.270       .  A
C329        C677   1.484       .  S
C330        O357   1.269       .  A
C330       C1726   1.488   1_545  S
Mg331       O338   2.153       .  S
Mg331       O339   2.158       .  S
Mg331       O332   2.274       .  S
Mg331       O333   2.299       .  S
Mg331       O360   2.278       .  S
O333        C337   1.268       .  A
O334       Mg341   2.280       .  S
O335        C354   1.274       .  A
O335      Mg1383   2.273       .  S
O336        C356   1.272       .  A
O336       Mg352   2.288       .  S
O338       Mg352   2.159       .  S
O338        C349   1.235       .  S
O339       Mg358   2.133       .  S
O340       Mg352   2.299       .  S
Mg341       O357   2.247       .  S
O342       Mg358   2.256       .  S
H343        C348   1.081   1_565  S
O344       Mg352   2.133       .  S
O344        C347   1.233       .  S
H345        C347   1.081       .  S
H346        C349   1.081       .  S
O351       Mg358   2.315       .  S
C354       O1421   1.274       .  A
C354        C657   1.484       .  S
O355        C356   1.273       .  A
C356        C687   1.494       .  S
O359       C1416   1.274       .  A
C361        C737   1.487       .  S
C361        C362   1.411       .  A
C361        C366   1.409       .  A
C362        C777   1.469       .  S
C362        C363   1.395       .  A
C363        H368   1.085       .  S
C363        C364   1.394       .  A
C364        C674   1.473       .  S
C364        C365   1.410       .  A
C365        C634   1.481       .  S
C365        C366   1.410       .  A
C366        H367   1.084       .  S
C369        C727   1.494       .  S
C369        C370   1.425       .  A
C369        C374   1.409       .  A
C370        C804   1.489       .  S
C370        C371   1.409       .  A
C371        H376   1.084       .  S
C371        C372   1.399       .  A
C372        C667   1.485       .  S
C372        C373   1.408       .  A
C373        C627   1.480       .  S
C373        C374   1.403       .  A
C374        H375   1.084       .  S
O377       Mg379   2.150       .  S
O377       Mg385   2.151       .  S
O377        C412   1.232       .  S
C378        O391   1.236       .  S
C378        O415   1.271       .  A
C378        H417   1.081       .  S
Mg379       O408   2.166       .  S
Mg379       O423   2.299       .  S
Mg379       O419   2.269       .  S
Mg379       O390   2.290       .  S
O380       Mg422   2.161       .  S
O380       Mg405   2.158       .  S
O380        C401   1.235       .  S
O381        C412   1.267       .  A
O381       Mg405   2.297       .  S
C382        O384   1.273       .  A
C382        O396   1.274       .  A
C382        C607   1.492       .  S
O383        C411   1.270       .  A
O383       Mg385   2.307       .  S
O384       Mg416   2.275       .  S
Mg385       O391   2.164       .  S
Mg385       O387   2.306       .  S
Mg385      O2523   2.275       .  S
C386        O424   1.271       .  A
C386        O392   1.276       .  A
C386        C574   1.495       .  S
O387        C394   1.275       .  A
H388        C401   1.081       .  S
C389        O403   1.235       .  S
C389        O404   1.269       .  A
C389        H414   1.081       .  S
O390        C413   1.268       .  A
O391       Mg405   2.175       .  S
O392      Mg1484   2.312       .  S
C393        O406   1.271       .  A
C393        O398   1.275       .  A
C393        C597   1.483   1_545  S
C394        O421   1.273       .  A
C394       C2761   1.494       .  S
Mg395       O402   2.138       .  S
Mg395       O403   2.157       .  S
Mg395       O396   2.292       .  S
Mg395       O397   2.300       .  S
Mg395      O1486   2.262   1_545  S
O397        C401   1.269       .  A
O398       Mg405   2.301       .  S
O399        C418   1.273       .  A
O399      Mg2509   2.275   1_455  S
O400        C420   1.272       .  A
O400       Mg416   2.280       .  S
O402       Mg416   2.157       .  S
O402        C413   1.235       .  S
O403       Mg422   2.142       .  S
O404       Mg416   2.298       .  S
Mg405       O421   2.270       .  S
O406       Mg422   2.258       .  S
H407        C412   1.081       .  S
O408       Mg416   2.155       .  S
O408        C411   1.235       .  S
H409        C411   1.081       .  S
H410        C413   1.081       .  S
O415       Mg422   2.307       .  S
C418       O2547   1.274   1_455  A
C418        C587   1.491       .  S
O419        C420   1.272       .  A
C420        C614   1.478       .  S
Mg422      O1454   2.311   1_545  S
O423       C2542   1.274       .  A
O424      Mg1457   2.263       .  S
O425       Mg427   2.148       .  S
O425       Mg433   2.157       .  S
O425        C460   1.235       .  S
C426        O439   1.235       .  S
C426        O463   1.270       .  A
C426        H465   1.081       .  S
Mg427       O456   2.157       .  S
Mg427       O471   2.284       .  S
Mg427       O467   2.263       .  S
Mg427       O438   2.302       .  S
O428       Mg470   2.149       .  S
O428       Mg453   2.147       .  S
O428        C449   1.235       .  S
O429        C460   1.270       .  A
O429       Mg453   2.303       .  S
C430        O432   1.270       .  A
C430        O444   1.275       .  A
C430       C2748   1.491       .  S
O431        C459   1.269       .  A
O431       Mg433   2.302       .  S
O432       Mg464   2.257       .  S
Mg433       O439   2.157       .  S
Mg433       O447   2.277       .  S
Mg433       O435   2.284       .  S
C434        O472   1.272       .  A
C434       O2564   1.273       .  A
C434        C524   1.492       .  S
O435        C442   1.272       .  A
H436        C449   1.081       .  S
C437        O451   1.235       .  S
C437        O452   1.270       .  A
C437        H462   1.081       .  S
O438        C461   1.269       .  A
O439       Mg453   2.156       .  S
O440       C2558   1.273       .  A
O440       Mg470   2.286       .  S
C441        O454   1.273       .  A
C441        O446   1.273       .  A
C441        C564   1.493       .  S
C442        O469   1.269       .  A
C442        C554   1.485       .  S
Mg443       O450   2.160       .  S
Mg443       O451   2.153       .  S
Mg443       O444   2.302       .  S
Mg443       O445   2.307       .  S
Mg443      O2596   2.280       .  S
O445        C449   1.271       .  A
O446       Mg453   2.294       .  S
O447        C466   1.271       .  A
O448        C468   1.275       .  A
O448       Mg464   2.309       .  S
O450       Mg464   2.159       .  S
O450        C461   1.234       .  S
O451       Mg470   2.162       .  S
O452       Mg464   2.307       .  S
Mg453       O469   2.256       .  S
O454       Mg470   2.294       .  S
H455        C460   1.081       .  S
O456       Mg464   2.148       .  S
O456        C459   1.234       .  S
H457        C459   1.081       .  S
H458        C461   1.081       .  S
O463       Mg470   2.305       .  S
C466        O471   1.272       .  A
C466        C534   1.489       .  S
O467        C468   1.270       .  A
C468        C547   1.489       .  S
O472      Mg2567   2.281   1_455  S
C473        C814   1.479       .  S
C473        C474   1.408       .  A
C473        C478   1.399       .  A
C474        C767   1.477       .  S
C474        C475   1.396       .  A
C475        H480   1.085       .  S
C475        C476   1.404       .  A
C476        C544   1.487       .  S
C476        C477   1.423       .  A
C477        C594   1.484       .  S
C477        C478   1.407       .  A
C478        H479   1.084       .  S
C481        C917   1.477       .  S
C481        C482   1.412       .  A
C481        C486   1.403   1_455  A
C482       C1027   1.480       .  S
C482        C483   1.399   1_455  A
C483        H488   1.085       .  S
C483       C2608   1.401       .  A
C484        C617   1.478       .  S
C484        C485   1.417       .  A
C484       C2607   1.401       .  A
C485        C567   1.490       .  S
C485       C2610   1.404       .  A
C486        H487   1.085   1_655  S
C486       C2609   1.405       .  A
C489        C877   1.469       .  S
C489        C490   1.410       .  A
C489        C494   1.400       .  A
C490       C1037   1.479       .  S
C490        C491   1.398       .  A
C491        H496   1.084       .  S
C491        C492   1.401       .  A
C492        C697   1.472       .  S
C492        C493   1.413       .  A
C493        C557   1.480       .  S
C493        C494   1.399       .  A
C494        H495   1.084       .  S
C497        C924   1.490       .  S
C497        C498   1.418       .  A
C497        C502   1.408       .  A
C498        C867   1.485       .  S
C498        C499   1.404       .  A
C499        H504   1.084       .  S
C499       C1562   1.405       .  A
C500        C604   1.485       .  S
C500        C501   1.414       .  A
C500       C1561   1.405       .  A
C501        C684   1.484       .  S
C501       C1564   1.403   1_545  A
C502        H503   1.084       .  S
C502       C1563   1.403       .  A
C505       C2831   1.491       .  S
C505        C506   1.412   1_656  A
C505       C3696   1.411   1_545  A
C506        C747   1.480       .  S
C506       C1569   1.416       .  A
C507        C794   1.482       .  S
C507        C508   1.412       .  A
C507       C1568   1.416       .  A
C508        C717   1.492       .  S
C508       C2633   1.411   1_454  A
C509        C754   1.476       .  S
C509        C510   1.413       .  A
C509       C2632   1.411   1_556  A
C510       C1849   1.483       .  S
C510       C3691   1.411       .  A
C511        C857   1.486       .  S
C511        C512   1.414       .  A
C511        C516   1.416       .  A
C512        C907   1.487       .  S
C512        C513   1.414       .  A
C513       C1017   1.489       .  S
C513        C514   1.415       .  A
C514        C847   1.483       .  S
C514        C515   1.413       .  A
C515        C897   1.494       .  S
C515        C516   1.415       .  A
C516       C1004   1.484       .  S
C517        C527   1.487       .  S
C517        C518   1.413       .  A
C517        C522   1.414       .  A
C518        C654   1.483       .  S
C518        C519   1.413       .  A
C519        C577   1.491       .  S
C519        C520   1.415       .  A
C520        C537   1.485       .  S
C520        C521   1.419       .  A
C521        C647   1.489       .  S
C521        C522   1.416       .  A
C522        C584   1.492       .  S
C523        C524   1.414       .  A
C523        C528   1.394       .  A
C523        F530   1.358       .  S
C524        C525   1.414       .  A
C525        C526   1.403       .  A
C525        F532   1.358       .  S
C526        C527   1.403       .  A
C526        F531   1.357       .  S
C527        C528   1.400       .  A
C528        F529   1.358       .  S
C533        C534   1.414       .  A
C533        C538   1.395       .  A
C533        F540   1.358       .  S
C534        C535   1.411       .  A
C535        C536   1.403       .  A
C535        F542   1.358       .  S
C536        C537   1.405       .  A
C536        F541   1.357       .  S
C537        C538   1.399       .  A
C538        F539   1.358       .  S
C543        C544   1.407       .  A
C543        C548   1.399       .  A
C543        F550   1.358       .  S
C544        C545   1.404       .  A
C545        C546   1.403       .  A
C545        F552   1.358       .  S
C546        C547   1.414       .  A
C546        F551   1.358       .  S
C547        C548   1.408       .  A
C548        F549   1.358       .  S
C553        C554   1.413       .  A
C553        C558   1.400       .  A
C553        F560   1.358       .  S
C554        C555   1.411       .  A
C555        C556   1.395       .  A
C555        F562   1.358       .  S
C556        C557   1.403       .  A
C556        F561   1.358       .  S
C557        C558   1.402       .  A
C558        F559   1.358       .  S
C563        C564   1.412       .  A
C563        C568   1.404       .  A
C563       F2694   1.357       .  S
C564        C565   1.412       .  A
C565        C566   1.400       .  A
C565        F572   1.358       .  S
C566        C567   1.404       .  A
C566        F571   1.358       .  S
C567        C568   1.406       .  A
C568       F2693   1.358       .  S
F569       C2692   1.358       .  S
F570       C2687   1.357   1_455  S
C573        C574   1.413       .  A
C573        C578   1.399       .  A
C573        F580   1.358       .  S
C574        C575   1.415       .  A
C575        C576   1.401       .  A
C575        F582   1.358       .  S
C576        C577   1.402       .  A
C576        F581   1.358       .  S
C577        C578   1.402       .  A
C578        F579   1.357       .  S
C583        C584   1.401       .  A
C583        C588   1.399       .  A
C583        F590   1.358       .  S
C584        C585   1.405       .  A
C585        C586   1.401       .  A
C585        F592   1.357       .  S
C586        C587   1.411       .  A
C586        F591   1.358       .  S
C587        C588   1.415       .  A
C588        F589   1.358       .  S
C593        C594   1.407       .  A
C593        C598   1.400       .  A
C593        F600   1.358       .  S
C594        C595   1.404       .  A
C595        C596   1.400       .  A
C595        F602   1.358       .  S
C596       C1659   1.411       .  A
C596       F1663   1.358       .  S
C597       C1658   1.411       .  A
C597       C1660   1.407       .  A
C598       C1659   1.407       .  A
C598        F599   1.358       .  S
F601       C1658   1.358   1_545  S
C603        C604   1.403       .  A
C603        C608   1.398       .  A
C603        F610   1.357   1_545  S
C604        C605   1.403       .  A
C605        C606   1.401       .  A
C605        F612   1.358       .  S
C606        C607   1.413       .  A
C606        F611   1.358       .  S
C607        C608   1.413       .  A
C608        F609   1.358       .  S
C613        C614   1.406       .  A
C613       C2742   1.399       .  A
C613       F2744   1.358       .  S
C614        C615   1.411       .  A
C615        C616   1.396       .  A
C615        F622   1.358       .  S
C616        C617   1.401       .  A
C616        F621   1.358       .  S
C617       C2742   1.405       .  A
C618       C2737   1.399       .  A
C618       C2741   1.406       .  A
C618        F619   1.358   1_655  S
F620       C2737   1.358   1_455  S
C623        C624   1.413       .  A
C623        C628   1.396       .  A
C623        F630   1.358       .  S
C624       C2554   1.491   1_455  S
C624       C2749   1.415   1_455  A
C625       C2748   1.415       .  A
C625       C2750   1.400       .  A
C625        F632   1.358       .  S
C626        C627   1.401       .  A
C626       C2749   1.400   1_455  A
C626       F2755   1.358       .  S
C627        C628   1.402       .  A
C628        F629   1.358       .  S
F631       C2750   1.358       .  S
C633        C634   1.401       .  A
C633        C638   1.402       .  A
C633        F640   1.358       .  S
C634        C635   1.402       .  A
C635       C2760   1.400       .  A
C635       F2766   1.358       .  S
C636       C2759   1.400       .  A
C636       C2761   1.413       .  A
C636        F641   1.358       .  S
C637       C2518   1.494   1_455  S
C637        C638   1.416       .  A
C637       C2760   1.413       .  A
C638        F639   1.358       .  S
F642       C2759   1.358       .  S
C643        C644   1.414       .  A
C643        C648   1.402       .  A
C643        F650   1.358       .  S
C644        C645   1.414       .  A
C645        C646   1.398       .  A
C645        F652   1.358       .  S
C646        C647   1.402       .  A
C646        F651   1.357       .  S
C647        C648   1.404       .  A
C648        F649   1.357       .  S
C653        C654   1.399       .  A
C653        C658   1.395       .  A
C653        F660   1.357       .  S
C654        C655   1.404       .  A
C655        C656   1.400       .  A
C655        F662   1.357       .  S
C656        C657   1.409       .  A
C656        F661   1.358       .  S
C657        C658   1.413       .  A
C658        F659   1.358       .  S
C663        C664   1.411       .  A
C663        C668   1.399       .  A
C663        F670   1.358       .  S
C664       C1392   1.488       .  S
C664        C665   1.412       .  A
C665        C666   1.400       .  A
C665        F672   1.358       .  S
C666        C667   1.403       .  A
C666        F671   1.358       .  S
C667        C668   1.404       .  A
C668        F669   1.358       .  S
C673        C674   1.402       .  A
C673        C678   1.398       .  A
C673        F680   1.357       .  S
C674        C675   1.399       .  A
C675        C676   1.396       .  A
C675        F682   1.358       .  S
C676        C677   1.414       .  A
C676        F681   1.358       .  S
C677        C678   1.411       .  A
C678        F679   1.358       .  S
C683        C684   1.401       .  A
C683        C688   1.397       .  A
C683        F690   1.358       .  S
C684       C1747   1.404   1_545  A
C685       C1746   1.404       .  A
C685       C1748   1.404       .  A
C685        F692   1.358       .  S
C686        C687   1.412   1_565  A
C686       C1747   1.404       .  A
C686       F1753   1.357       .  S
C687        C688   1.416       .  A
C688        F689   1.358       .  S
F691       C1748   1.357       .  S
C693        C694   1.407       .  A
C693        C698   1.396       .  A
C693        F700   1.358       .  S
C694        C695   1.409       .  A
C695        C696   1.391       .  A
C695        F702   1.358       .  S
C696        C697   1.399       .  A
C696        F701   1.358       .  S
C697        C698   1.405       .  A
C698        F699   1.358       .  S
C703        C704   1.413       .  A
C703        C708   1.402       .  A
C703        F710   1.357       .  S
C704       C2829   1.416   1_556  A
C705        C706   1.399       .  A
C705       C2828   1.416   1_554  A
C705        F712   1.358       .  S
C706       C2831   1.401   1_554  A
C706        F711   1.358       .  S
C707       C2629   1.491       .  S
C707        C708   1.403       .  A
C707       C2830   1.401   1_556  A
C708        F709   1.357       .  S
C713        C718   1.402       .  A
C713       C2838   1.415       .  A
C713        F720   1.358       .  S
C714        C715   1.415   1_554  A
C714       C2837   1.415       .  A
C715        C716   1.401       .  A
C715        F722   1.358       .  S
C716        C717   1.402   1_556  A
C716        F721   1.357       .  S
C717       C2842   1.403       .  A
C718       C2841   1.403       .  A
C718        F719   1.357       .  S
C723        C724   1.409       .  A
C723        C728   1.404       .  A
C723       F2854   1.358   1_455  S
C724        C725   1.412       .  A
C725        C726   1.404       .  A
C725        F732   1.358       .  S
C726        C727   1.406       .  A
C726        F731   1.357       .  S
C727        C728   1.408       .  A
C728        F729   1.358       .  S
F730       C2847   1.358       .  S
C733        C734   1.413       .  A
C733        C738   1.405       .  A
C733        F740   1.357       .  S
C734        C735   1.417       .  A
C735        C736   1.402       .  A
C735        F742   1.358       .  S
C736        C737   1.401       .  A
C736        F741   1.358       .  S
C737        C738   1.404       .  A
C738        F739   1.358       .  S
C743        C744   1.413       .  A
C743        C748   1.398       .  A
C743        F750   1.358       .  S
C744        C745   1.414   1_554  A
C745        C746   1.397       .  A
C745        F752   1.358       .  S
C746        C747   1.401   1_556  A
C746        F751   1.358       .  S
C747        C748   1.400       .  A
C748        F749   1.357       .  S
C753        C754   1.401       .  A
C753        C758   1.399       .  A
C753        F760   1.357       .  S
C754        C755   1.397   1_556  A
C755        C756   1.394       .  A
C755        F762   1.358       .  S
C756        C757   1.417   1_554  A
C756        F761   1.358       .  S
C757        C758   1.411       .  A
C758        F759   1.357       .  S
C763        C764   1.411       .  A
C763        C768   1.397       .  A
C763        F770   1.358       .  S
C764        C765   1.408       .  A
C765        C766   1.396       .  A
C765        F772   1.358       .  S
C766        C767   1.403       .  A
C766        F771   1.357       .  S
C767        C768   1.402       .  A
C768        F769   1.358       .  S
C773        C774   1.413       .  A
C773        C778   1.394       .  A
C773        F780   1.358       .  S
C774        C775   1.414       .  A
C775        C776   1.397       .  A
C775        F782   1.358       .  S
C776        C777   1.400       .  A
C776        F781   1.358       .  S
C777        C778   1.399       .  A
C778        F779   1.358       .  S
C783        C788   1.394       .  A
C783       C1846   1.415   1_554  A
C783        F790   1.357       .  S
C784        C785   1.412       .  A
C784       C1845   1.415   1_556  A
C785        C786   1.401       .  A
C785        F792   1.357       .  S
C786        C787   1.402       .  A
C786        F791   1.357       .  S
C787       C1572   1.483       .  S
C787       C1850   1.399   1_556  A
C788       C1849   1.399   1_554  A
C788        F789   1.358       .  S
C793       C1856   1.398   1_556  A
C793       C1860   1.395       .  A
C793        F800   1.358       .  S
C794        C795   1.404       .  A
C794       C1855   1.398   1_554  A
C795        C796   1.402       .  A
C795        F802   1.357       .  S
C796        C797   1.411       .  A
C796        F801   1.357       .  S
C797        C798   1.415   1_554  A
C798       C1855   1.395       .  A
C798       F1861   1.358       .  S
F799       C1860   1.358       .  S
C803        C804   1.405       .  A
C803        C808   1.401       .  A
C803        F810   1.357       .  S
C804        C805   1.408       .  A
C805        C806   1.400       .  A
C805        F812   1.358       .  S
C806        C807   1.408       .  A
C806        F811   1.358       .  S
C807        C808   1.411       .  A
C808        F809   1.358       .  S
C813        C814   1.400       .  A
C813        C818   1.398       .  A
C813        F820   1.358       .  S
C814        C815   1.402       .  A
C815        C816   1.396       .  A
C815        F822   1.358       .  S
C816        C817   1.412       .  A
C816        F821   1.358       .  S
C817        C818   1.415       .  A
C818        F819   1.358       .  S
C823        C824   1.405       .  A
C823        C828   1.402       .  A
C823        F830   1.357       .  S
C824        C825   1.405       .  A
C825        C826   1.405       .  A
C825        F832   1.358       .  S
C826        C827   1.413       .  A
C826        F831   1.357       .  S
C827        C828   1.415       .  A
C828        F829   1.358       .  S
C833        C834   1.410       .  A
C833        C838   1.397       .  A
C833        F840   1.358       .  S
C834        C835   1.415       .  A
C835        C836   1.393       .  A
C835        F842   1.358       .  S
C836        C837   1.397       .  A
C836        F841   1.358       .  S
C837        C838   1.402       .  A
C838        F839   1.358       .  S
C843        C844   1.412       .  A
C843        C848   1.397       .  A
C843        F850   1.358       .  S
C844        C845   1.413       .  A
C845        C846   1.396       .  A
C845        F852   1.358       .  S
C846        C847   1.401       .  A
C846        F851   1.358       .  S
C847        C848   1.402       .  A
C848        F849   1.358       .  S
C853        C854   1.411       .  A
C853        C858   1.403       .  A
C853        F860   1.358       .  S
C854        C855   1.414       .  A
C855        C856   1.397       .  A
C855        F862   1.358       .  S
C856        C857   1.399       .  A
C856        F861   1.358       .  S
C857        C858   1.405       .  A
C858        F859   1.357       .  S
C863        C864   1.410       .  A
C863       C1930   1.404       .  A
C863       F1932   1.357       .  S
C864        C865   1.414       .  A
C865        C866   1.397       .  A
C865        F872   1.358       .  S
C866        C867   1.402       .  A
C866        F871   1.358       .  S
C867       C1930   1.406       .  A
C868       C1925   1.404       .  A
C868       C1929   1.406   1_545  A
C868        F869   1.358       .  S
F870       C1925   1.357       .  S
C873        C874   1.412       .  A
C873        C878   1.392       .  A
C873        F880   1.358       .  S
C874        C875   1.413       .  A
C875        C876   1.397       .  A
C875        F882   1.358       .  S
C876        C877   1.399       .  A
C876        F881   1.358       .  S
C877        C878   1.399       .  A
C878        F879   1.358       .  S
C883        C884   1.411       .  A
C883        C888   1.398       .  A
C883        F890   1.358       .  S
C884        C885   1.414       .  A
C885        C886   1.397       .  A
C885        F892   1.358       .  S
C886        C887   1.401       .  A
C886        F891   1.358       .  S
C887        C888   1.403       .  A
C888        F889   1.357       .  S
C893        C894   1.413       .  A
C893        C898   1.397       .  A
C893        F900   1.358       .  S
C894        C895   1.411       .  A
C895        C896   1.402       .  A
C895        F902   1.358       .  S
C896        C897   1.405       .  A
C896        F901   1.357       .  S
C897        C898   1.403       .  A
C898        F899   1.358       .  S
C903        C904   1.412       .  A
C903        C908   1.400       .  A
C903        F910   1.357       .  S
C904        C905   1.416       .  A
C905        C906   1.398       .  A
C905        F912   1.358       .  S
C906        C907   1.400       .  A
C906        F911   1.358       .  S
C907        C908   1.402       .  A
C908        F909   1.357       .  S
C913        C914   1.411       .  A
C913       C3042   1.401   1_455  A
C913       F3044   1.358   1_455  S
C914        C915   1.414       .  A
C915        C916   1.398       .  A
C915        F922   1.358       .  S
C916        C917   1.401       .  A
C916        F921   1.358       .  S
C917       C3042   1.403   1_455  A
C918       C3037   1.401       .  A
C918       C3041   1.403       .  A
C918        F919   1.358       .  S
F920       C3037   1.358       .  S
C923        C924   1.404       .  A
C923        C928   1.401       .  A
C923        F930   1.358       .  S
C924        C925   1.406       .  A
C925        C926   1.401       .  A
C925        F932   1.357       .  S
C926        C927   1.411       .  A
C926        F931   1.358       .  S
C927        C928   1.413       .  A
C928        F929   1.358       .  S
C933        C934   1.415       .  A
C933        C938   1.401       .  A
C933       F3064   1.358       .  S
C934       C2194   1.493       .  S
C934        C935   1.410       .  A
C935        C936   1.403       .  A
C935        F942   1.358       .  S
C936        C937   1.406       .  A
C936        F941   1.358       .  S
C937        C938   1.401       .  A
C938        F939   1.358       .  S
F940       C3057   1.358       .  S
C943        C944   1.412       .  A
C943        C948   1.401       .  A
C943        F950   1.358       .  S
C944        C945   1.411       .  A
C945        C946   1.404       .  A
C945       F3076   1.358       .  S
C946        C947   1.407       .  A
C946        F951   1.358       .  S
C947        C948   1.404       .  A
C948        F949   1.358       .  S
F952       C3069   1.358   1_455  S
C953        C954   1.412       .  A
C953        C958   1.401       .  A
C953        F960   1.357       .  S
C954        C955   1.410       .  A
C955        C956   1.401       .  A
C955        F962   1.358       .  S
C956        C957   1.407       .  A
C956        F961   1.358       .  S
C957        C958   1.404       .  A
C958        F959   1.358       .  S
C963        C964   1.400       .  A
C963        C968   1.397       .  A
C963        F970   1.358       .  S
C964        C965   1.403       .  A
C965        C966   1.400       .  A
C965        F972   1.358       .  S
C966        C967   1.413       .  A
C966        F971   1.358       .  S
C967       C1180   1.490   1_545  S
C967        C968   1.414       .  A
C968       F2031   1.358   1_545  S
F969       C2030   1.358       .  S
C973        C974   1.413       .  A
C973        C978   1.396       .  A
C973        F980   1.358       .  S
C974        C975   1.413       .  A
C975        C976   1.399       .  A
C975        F982   1.358       .  S
C976        C977   1.401       .  A
C976        F981   1.358       .  S
C977        C978   1.401       .  A
C978        F979   1.357       .  S
C983        C984   1.412       .  A
C983        C988   1.400       .  A
C983        F990   1.358       .  S
C984        C985   1.412       .  A
C985        C986   1.393       .  A
C985        F992   1.358       .  S
C986        C987   1.399       .  A
C986        F991   1.358       .  S
C987        C988   1.402       .  A
C988        F989   1.358       .  S
C993        C994   1.404       .  A
C993        C998   1.400       .  A
C993       F1000   1.358       .  S
C994        C995   1.403       .  A
C995        C996   1.402       .  A
C995       F1002   1.358       .  S
C996       C2059   1.412       .  A
C996       F1001   1.358   1_545  S
C997       C2058   1.412       .  A
C997       C2060   1.412       .  A
C998       C2059   1.412       .  A
C998       F2061   1.358       .  S
F999       C2060   1.358       .  S
C1003      C1004   1.401       .  A
C1003      C1008   1.391       .  A
C1003      F1010   1.357       .  S
C1004      C1005   1.403       .  A
C1005      C1006   1.401       .  A
C1005      F1012   1.357       .  S
C1006      C1007   1.414       .  A
C1006      F1011   1.358       .  S
C1007      C1008   1.411       .  A
C1008      F1009   1.357       .  S
C1013      C1014   1.409       .  A
C1013      C1018   1.402       .  A
C1013      F1020   1.358       .  S
C1014      C1015   1.414       .  A
C1015      C1016   1.396       .  A
C1015      F1022   1.358       .  S
C1016      C1017   1.399       .  A
C1016      F1021   1.358       .  S
C1017      C1018   1.407       .  A
C1018      F1019   1.357       .  S
C1023      C1024   1.414       .  A
C1023      C1028   1.397       .  A
C1023      F1030   1.358       .  S
C1024      C1025   1.415   1_455  A
C1025      C1026   1.403       .  A
C1025      F3156   1.358       .  S
C1026      C1027   1.403   1_655  A
C1026      F3155   1.358       .  S
C1027      C1028   1.401       .  A
C1028      F1029   1.358       .  S
F1031      C3150   1.358       .  S
F1032      C3149   1.358       .  S
C1033      C1034   1.407       .  A
C1033      C1038   1.401       .  A
C1033      F1040   1.357       .  S
C1034      C1035   1.412       .  A
C1035      C1036   1.395       .  A
C1035      F1042   1.358       .  S
C1036      C1037   1.399       .  A
C1036      F1041   1.358       .  S
C1037      C1038   1.406       .  A
C1038      F1039   1.357       .  S
C1043      C1044   1.399       .  A
C1043      C1048   1.394       .  A
C1043      F1050   1.358       .  S
C1044      C1045   1.401       .  A
C1045      C3170   1.400       .  A
C1045      F3176   1.358       .  S
C1046      C3169   1.400       .  A
C1046      C3171   1.413       .  A
C1046      F1051   1.358   1_655  S
C1047      C2142   1.485       .  S
C1047      C1048   1.413       .  A
C1047      C3170   1.413       .  A
C1048      F1049   1.358       .  S
F1052      C3169   1.358       .  S
C1053      C1054   1.412       .  A
C1053      C1058   1.402       .  A
C1053      F1060   1.358       .  S
C1054      C1055   1.412       .  A
C1055      C1056   1.399       .  A
C1055      F1062   1.357       .  S
C1056      C1057   1.402       .  A
C1056      F1061   1.358       .  S
C1057      C1058   1.406       .  A
C1058      F1059   1.358       .  S
O1063     Mg1065   2.151       .  S
O1063     Mg1071   2.156       .  S
O1063      C1098   1.235       .  S
C1064      O1077   1.233       .  S
C1064      O1101   1.268       .  A
C1064      H1103   1.081       .  S
Mg1065     O1094   2.161       .  S
Mg1065     O1109   2.283   1_455  S
Mg1065     O1105   2.268       .  S
Mg1065     O1076   2.302       .  S
O1066     Mg1108   2.160       .  S
O1066     Mg1091   2.144       .  S
O1066      C1087   1.236       .  S
O1067      C1098   1.270       .  A
O1067     Mg1091   2.304       .  S
C1068      O1070   1.271       .  A
C1068      O1082   1.270       .  A
C1068      C2096   1.480       .  S
O1069      C1097   1.270       .  A
O1069     Mg1071   2.305       .  S
O1070     Mg1102   2.277       .  S
Mg1071     O1077   2.153       .  S
Mg1071     O3209   2.282   1_455  S
Mg1071     O1073   2.295       .  S
C1072      O1110   1.269       .  A
C1072      O1078   1.272       .  A
C1072      C2069   1.486       .  S
O1073      C1080   1.274       .  A
H1074      C1087   1.081       .  S
C1075      O1089   1.235       .  S
C1075      O1090   1.271       .  A
C1075      H1100   1.081       .  S
O1076      C1099   1.269       .  A
O1077     Mg1091   2.158       .  S
O1078     Mg1108   2.278       .  S
C1079      O1092   1.271       .  A
C1079      O1084   1.274       .  A
C1079      C2116   1.490       .  S
C1080      O1107   1.269       .  A
C1080      C4233   1.486   1_455  S
Mg1081     O1088   2.148       .  S
Mg1081     O1089   2.150       .  S
Mg1081     O1082   2.277       .  S
Mg1081     O1083   2.301       .  S
Mg1081     O1110   2.258       .  S
O1083      C1087   1.270       .  A
O1084     Mg1091   2.307       .  S
O1085      C1104   1.273       .  A
O1085     Mg3195   2.282       .  S
O1086      C1106   1.274       .  A
O1086     Mg1102   2.296       .  S
O1088     Mg1102   2.146       .  S
O1088      C1099   1.234       .  S
O1089     Mg1108   2.143       .  S
O1090     Mg1102   2.310       .  S
Mg1091     O1107   2.246       .  S
O1092     Mg1108   2.262       .  S
H1093      C1098   1.081       .  S
O1094     Mg1102   2.154       .  S
O1094      C1097   1.235       .  S
H1095      C1097   1.081       .  S
H1096      C1099   1.081       .  S
O1101     Mg1108   2.296       .  S
C1104      O3233   1.272       .  A
C1104      C2076   1.488       .  S
O1105      C1106   1.271       .  A
C1106      C2086   1.492       .  S
O1109      C3228   1.272       .  A
C1111      C2119   1.484       .  S
C1111      C1112   1.420       .  A
C1111      C1116   1.406       .  A
C1112      C2056   1.484       .  S
C1112      C1113   1.404       .  A
C1113      H1118   1.084       .  S
C1113      C1114   1.398       .  A
C1114      C2049   1.475       .  S
C1114      C1115   1.407       .  A
C1115      C2039   1.477       .  S
C1115      C1116   1.399       .  A
C1116      H1117   1.084       .  S
C1119      C2026   1.480       .  S
C1119      C1120   1.406       .  A
C1119      C1124   1.398       .  A
C1120      C2106   1.475       .  S
C1120      C1121   1.399       .  A
C1121      H1126   1.084       .  S
C1121      C1122   1.406       .  A
C1122      C2009   1.490       .  S
C1122      C1123   1.424       .  A
C1123      C2019   1.489       .  S
C1123      C1124   1.409       .  A
C1124      H1125   1.084       .  S
O1127     Mg1129   2.144       .  S
O1127     Mg1135   2.159       .  S
O1127      C1162   1.234       .  S
C1128      O1141   1.235       .  S
C1128      O1165   1.269       .  A
C1128      H1167   1.081       .  S
Mg1129     O1158   2.161       .  S
Mg1129     O1169   2.251       .  S
Mg1129     O1140   2.304       .  S
O1130     Mg1172   2.157       .  S
O1130     Mg1155   2.150       .  S
O1130      C1151   1.235       .  S
O1131      C1162   1.268       .  A
O1131     Mg1155   2.293       .  S
C1132      O1134   1.276       .  A
C1132      O1146   1.276       .  A
C1132      C4120   1.493   1_455  S
O1133      C1161   1.271       .  A
O1133     Mg1135   2.307       .  S
O1134     Mg1166   2.289       .  S
Mg1135     O1141   2.143       .  S
Mg1135     O1137   2.317       .  S
C1136      O1174   1.274       .  A
C1136      O3266   1.272       .  A
C1136      C1966   1.493       .  S
O1137      C1144   1.277       .  A
H1138      C1151   1.081       .  S
C1139      O1153   1.233       .  S
C1139      O1154   1.269       .  A
C1139      H1164   1.081   1_455  S
O1140      C1163   1.270       .  A
O1141     Mg1155   2.163       .  S
O1142      C3260   1.272       .  A
O1142     Mg1172   2.284   1_655  S
C1143      O1156   1.272       .  A
C1143      O1148   1.273       .  A
C1143      C1976   1.486       .  S
C1144      O1171   1.272       .  A
C1144      C1989   1.493       .  S
Mg1145     O1152   2.164       .  S
Mg1145     O1153   2.155       .  S
Mg1145     O1146   2.307       .  S
Mg1145     O1147   2.304       .  S
Mg1145     O3298   2.288   1_455  S
O1147      C1151   1.270       .  A
O1148     Mg1155   2.289       .  S
O1149      C1168   1.272       .  A
O1150      C1170   1.278       .  A
O1150     Mg1166   2.325       .  S
O1152     Mg1166   2.173       .  S
O1152      C1163   1.235       .  S
O1153     Mg1172   2.157       .  S
O1154     Mg1166   2.302       .  S
Mg1155     O1171   2.266       .  S
O1156     Mg1172   2.272       .  S
H1157      C1162   1.081       .  S
O1158     Mg1166   2.166       .  S
O1158      C1161   1.235       .  S
H1159      C1161   1.081       .  S
H1160      C1163   1.081       .  S
O1165     Mg1172   2.293       .  S
C1168      O1173   1.274       .  A
C1168      C1956   1.490       .  S
O1169      C1170   1.270       .  A
C1170      C2059   1.491   1_565  S
O1174     Mg3269   2.288       .  S
O1175     Mg1177   2.142       .  S
O1175     Mg1183   2.164       .  S
O1175      C1210   1.236       .  S
C1176      O1189   1.235       .  S
C1176      O1213   1.271       .  A
C1176      H1215   1.081       .  S
Mg1177     O1206   2.152       .  S
Mg1177     O1221   2.291       .  S
Mg1177     O1217   2.266       .  S
Mg1177     O1188   2.300       .  S
O1178     Mg1220   2.147       .  S
O1178     Mg1203   2.140       .  S
O1178      C1199   1.233       .  S
O1179      C1210   1.270       .  A
O1179     Mg1203   2.301       .  S
C1180      O1182   1.267       .  A
C1180      O1194   1.275       .  A
O1181      C1209   1.266       .  A
O1181     Mg1183   2.290       .  S
O1182     Mg1214   2.233       .  S
Mg1183     O1189   2.162       .  S
Mg1183     O1197   2.282       .  S
Mg1183     O1185   2.273       .  S
C1184      O1222   1.271       .  A
C1184      C1906   1.487       .  S
O1185      C1192   1.271       .  A
H1186      C1199   1.082       .  S
C1187      O1201   1.236       .  S
C1187      O1202   1.270       .  A
C1187      H1212   1.081   1_565  S
O1188      C1211   1.269       .  A
O1189     Mg1203   2.153       .  S
O1190     Mg1220   2.306   1_545  S
C1191      O1204   1.274       .  A
C1191      O1196   1.273       .  A
C1191      C1926   1.490       .  S
C1192      O1219   1.269       .  A
C1192      C1936   1.482       .  S
Mg1193     O1200   2.142       .  S
Mg1193     O1201   2.173       .  S
Mg1193     O1194   2.312       .  S
Mg1193     O1195   2.296       .  S
O1195      C1199   1.267       .  A
O1196     Mg1203   2.296       .  S
O1197      C1216   1.273       .  A
O1198      C1218   1.271       .  A
O1198     Mg1214   2.277       .  S
O1200     Mg1214   2.148       .  S
O1200      C1211   1.234       .  S
O1201     Mg1220   2.155       .  S
O1202     Mg1214   2.297       .  S
Mg1203     O1219   2.249       .  S
O1204     Mg1220   2.286       .  S
H1205      C1210   1.081       .  S
O1206     Mg1214   2.130       .  S
O1206      C1209   1.233       .  S
H1207      C1209   1.081       .  S
H1208      C1211   1.081       .  S
O1213     Mg1220   2.312       .  S
C1216      O1221   1.274       .  A
C1216      C1916   1.490       .  S
O1217      C1218   1.272       .  A
C1218      C1946   1.485       .  S
C1223      C1949   1.478       .  S
C1223      C1224   1.413       .  A
C1223      C1228   1.395       .  A
C1224      C1999   1.485       .  S
C1224      C1225   1.411       .  A
C1225      H1230   1.084       .  S
C1225      C1226   1.411       .  A
C1226      C1886   1.493       .  S
C1226      C1227   1.414       .  A
C1227      C1899   1.469       .  S
C1227      C1228   1.395       .  A
C1228      H1229   1.085       .  S
O1231     Mg1233   2.146   1_554  S
O1231      C1266   1.234       .  S
C1232      O1245   1.234   1_565  S
C1232      O1269   1.269       .  A
C1232      H1271   1.081       .  S
Mg1233     O1244   2.301       .  S
O1234     Mg1259   2.148       .  S
O1234      C1255   1.235       .  S
O1235      C1266   1.269       .  A
O1235     Mg1259   2.303       .  S
C1236      O1238   1.268       .  A
C1236      O1250   1.273       .  A
C1236      C1879   1.487       .  S
O1237      C1265   1.269   1_554  A
O1237     Mg1239   2.302   1_565  S
O1238     Mg1270   2.244       .  S
Mg1239     O1245   2.157       .  S
Mg1239     O1253   2.283       .  S
C1240      O1278   1.272       .  A
C1240      O1246   1.271   1_556  A
C1240      C1846   1.490       .  S
O1241      C1248   1.274       .  A
H1242      C1255   1.082       .  S
C1243      O1257   1.235       .  S
C1243      O1258   1.271       .  A
C1243      H1268   1.081   1_556  S
O1244      C1267   1.269       .  A
C1247      O1260   1.271       .  A
C1247      O1252   1.273       .  A
C1247      C2016   1.490       .  S
C1248      O1275   1.269       .  A
C1248      C2046   1.483       .  S
Mg1249     O1256   2.156       .  S
Mg1249     O1251   2.306       .  S
Mg1249     O1278   2.278       .  S
O1251      C1255   1.271   1_556  A
O1252     Mg1259   2.304       .  S
O1253      C1272   1.273       .  A
O1254      C1274   1.274       .  A
O1254     Mg1270   2.305       .  S
O1256      C1267   1.234       .  S
O1257     Mg1276   2.150   1_556  S
O1258     Mg1270   2.310       .  S
Mg1259     O1275   2.247       .  S
H1261      C1266   1.081   1_556  S
O1262     Mg1270   2.146       .  S
O1262      C1265   1.234       .  S
H1263      C1265   1.081       .  S
H1264      C1267   1.081       .  S
O1269     Mg1276   2.301       .  S
C1272      O1277   1.271   1_544  A
C1272      C1859   1.489       .  S
O1273      C1274   1.270       .  A
C1274      C1869   1.486       .  S
O1279     Mg1281   2.135   1_556  S
O1279     Mg1287   2.168       .  S
O1279      C1314   1.234       .  S
C1280      O1293   1.236       .  S
C1280      O1317   1.272       .  A
C1280      H1319   1.081       .  S
Mg1281     O1310   2.148       .  S
Mg1281     O1325   2.267       .  S
Mg1281     O1321   2.260       .  S
Mg1281     O1292   2.296       .  S
O1282     Mg1324   2.145       .  S
O1282     Mg1307   2.145       .  S
O1282      C1303   1.233       .  S
O1283      C1314   1.268       .  A
O1283     Mg1307   2.292       .  S
C1284      O1286   1.268       .  A
C1284      O1298   1.274       .  A
C1284      C2036   1.487       .  S
O1285      C1313   1.267   1_556  A
O1285     Mg1287   2.292       .  S
O1286     Mg1318   2.235       .  S
Mg1287     O1293   2.153       .  S
Mg1287     O1301   2.279       .  S
Mg1287     O1289   2.295       .  S
C1288      O1326   1.271       .  A
C1288      O1294   1.274   1_554  A
C1288      C1806   1.488       .  S
O1289      C1296   1.274       .  A
H1290      C1303   1.081       .  S
C1291      O1305   1.235       .  S
C1291      O1306   1.268       .  A
C1291      H1316   1.081   1_554  S
O1292      C1315   1.269       .  A
O1293     Mg1307   2.157       .  S
O1294     Mg1324   2.299       .  S
C1295      O1308   1.268       .  A
C1295      O1300   1.272       .  A
C1295      C1836   1.481       .  S
C1296      O1323   1.270       .  A
C1296      C1826   1.478       .  S
Mg1297     O1304   2.129       .  S
Mg1297     O1305   2.165       .  S
Mg1297     O1298   2.302       .  S
Mg1297     O1299   2.299       .  S
Mg1297     O1326   2.250       .  S
O1299      C1303   1.268   1_554  A
O1300     Mg1307   2.285       .  S
O1301      C1320   1.274       .  A
O1302      C1322   1.269       .  A
O1302     Mg1318   2.262       .  S
O1304     Mg1318   2.147       .  S
O1304      C1315   1.235       .  S
O1305     Mg1324   2.133   1_554  S
O1306     Mg1318   2.292       .  S
Mg1307     O1323   2.246       .  S
O1308     Mg1324   2.244       .  S
H1309      C1314   1.081       .  S
O1310     Mg1318   2.129       .  S
O1310      C1313   1.233       .  S
H1311      C1313   1.081       .  S
H1312      C1315   1.081       .  S
O1317     Mg1324   2.311       .  S
C1320      O1325   1.271   1_556  A
C1320      C1819   1.487       .  S
O1321      C1322   1.270       .  A
C1322      C1896   1.481       .  S
O1327     Mg1329   2.163   1_556  S
O1327     Mg3459   2.162   1_455  S
O1327      C1362   1.234       .  S
C1328      O1341   1.234       .  S
C1328      O1365   1.269       .  A
C1328      H1367   1.081       .  S
Mg1329     O3482   2.165   1_455  S
Mg1329     O3497   2.293   1_455  S
Mg1329     O3493   2.272   1_455  S
Mg1329     O1340   2.296       .  S
O1330     Mg3496   2.172   1_455  S
O1330     Mg1355   2.172       .  S
O1330      C1351   1.236       .  S
O1331      C1362   1.269       .  A
O1331     Mg1355   2.300       .  S
C1332      O1334   1.276       .  A
C1332      O1346   1.276       .  A
C1332      C1889   1.499       .  S
O1333      C1361   1.271   1_556  A
O1333     Mg1335   2.304       .  S
O1334     Mg1366   2.300       .  S
Mg1335     O3451   2.162       .  S
Mg1335     O1341   2.159       .  S
Mg1335     O1349   2.283       .  S
Mg1335     O3461   2.307       .  S
C1336      O1374   1.272       .  A
C1336      O1342   1.275   1_554  A
C1336      C1776   1.498       .  S
O1337      C1344   1.276       .  A
O1337     Mg3459   2.307   1_455  S
H1338      C1351   1.081       .  S
C1339      O1353   1.235       .  S
C1339      O1354   1.270       .  A
C1339      H1364   1.081   1_554  S
O1340      C1363   1.269       .  A
O1341     Mg3479   2.174       .  S
O1342     Mg3496   2.310   1_455  S
C1343      O1356   1.273       .  A
C1343      O1348   1.279       .  A
C1343      C1786   1.492       .  S
C1344      O1371   1.278       .  A
C1344      C1796   1.494       .  S
Mg1345     O1352   2.153       .  S
Mg1345     O3477   2.159   1_455  S
Mg1345     O3470   2.307   1_455  S
Mg1345     O1347   2.306       .  S
Mg1345     O1374   2.275       .  S
O1346     Mg3469   2.307       .  S
O1347      C1351   1.271   1_554  A
O1348     Mg1355   2.329       .  S
O1349      C1368   1.273       .  A
O1350      C1370   1.279       .  A
O1350     Mg1366   2.327       .  S
O1352     Mg3490   2.163   1_455  S
O1352      C1363   1.235       .  S
O1353     Mg3469   2.159       .  S
O1353     Mg1372   2.165   1_554  S
O1354     Mg1366   2.306       .  S
Mg1355     O3465   2.174   1_455  S
Mg1355     O1371   2.307       .  S
O1356     Mg3496   2.273   1_455  S
H1357      C1362   1.081   1_554  S
O1358     Mg3453   2.165       .  S
O1358     Mg1366   2.161       .  S
O1358      C1361   1.236       .  S
H1359      C1361   1.081       .  S
H1360      C1363   1.081       .  S
O1365     Mg1372   2.298       .  S
Mg1366     O3476   2.163       .  S
C1368      O1373   1.273   1_556  A
C1368      C1766   1.495       .  S
O1369      C1370   1.273       .  A
O1369     Mg3453   2.272       .  S
C1370      C2006   1.493       .  S
Mg1372     O3454   2.172       .  S
Mg1372     O3466   2.310       .  S
Mg1372     O3480   2.273       .  S
O1373     Mg3453   2.293       .  S
O1375     Mg1377   2.148       .  S
O1375     Mg1383   2.169       .  S
O1375      C1410   1.235       .  S
C1376      O1389   1.236       .  S
C1376      O1413   1.272       .  A
C1376      H1415   1.081       .  S
Mg1377     O1406   2.151       .  S
Mg1377     O1421   2.288       .  S
Mg1377     O1417   2.285       .  S
Mg1377     O1388   2.300       .  S
O1378     Mg1420   2.142       .  S
O1378     Mg1403   2.150       .  S
O1378      C1399   1.233       .  S
O1379      C1410   1.269       .  A
O1379     Mg1403   2.295       .  S
C1380      O1382   1.268       .  A
C1380      O1394   1.272       .  A
C1380      C1756   1.471       .  S
O1381      C1409   1.267       .  A
O1381     Mg1383   2.296       .  S
O1382     Mg1414   2.235       .  S
Mg1383     O1389   2.155       .  S
Mg1383     O1385   2.316       .  S
C1384      O1422   1.273       .  A
C1384      O1390   1.275       .  A
C1384      C1706   1.496       .  S
O1385      C1392   1.276       .  A
H1386      C1399   1.082       .  S
C1387      O1401   1.235       .  S
C1387      O1402   1.270       .  A
C1387      H1412   1.081       .  S
O1388      C1411   1.270       .  A
O1389     Mg1403   2.155       .  S
O1390     Mg1420   2.304       .  S
C1391      O1404   1.268       .  A
C1391      O1396   1.270       .  A
C1391      C1739   1.484       .  S
C1392      O1419   1.269       .  A
Mg1393     O1400   2.153       .  S
Mg1393     O1401   2.158       .  S
Mg1393     O1394   2.274       .  S
Mg1393     O1395   2.298       .  S
Mg1393     O1422   2.279       .  S
O1395      C1399   1.268       .  A
O1396     Mg1403   2.280       .  S
O1397      C1416   1.275       .  A
O1398      C1418   1.272       .  A
O1398     Mg1414   2.287       .  S
O1400     Mg1414   2.159       .  S
O1400      C1411   1.235       .  S
O1401     Mg1420   2.132       .  S
O1402     Mg1414   2.299       .  S
Mg1403     O1419   2.248       .  S
O1404     Mg1420   2.254       .  S
H1405      C1410   1.081       .  S
O1406     Mg1414   2.133       .  S
O1406      C1409   1.233       .  S
H1407      C1409   1.081       .  S
H1408      C1411   1.081       .  S
O1413     Mg1420   2.315       .  S
C1416      C1719   1.484       .  S
O1417      C1418   1.273       .  A
C1418      C1749   1.494       .  S
C1423      C1799   1.490       .  S
C1423      C1424   1.414       .  A
C1423      C1428   1.411       .  A
C1424      C1839   1.472       .  S
C1424      C1425   1.395       .  A
C1425      H1430   1.085       .  S
C1425      C1426   1.393       .  A
C1426      C1736   1.472       .  S
C1426      C1427   1.410       .  A
C1427      C1696   1.481       .  S
C1427      C1428   1.409       .  A
C1428      H1429   1.084       .  S
C1431      C1789   1.494       .  S
C1431      C1432   1.425       .  A
C1431      C1436   1.409       .  A
C1432      C1866   1.489       .  S
C1432      C1433   1.409       .  A
C1433      H1438   1.084       .  S
C1433      C1434   1.399       .  A
C1434      C1729   1.485       .  S
C1434      C1435   1.408       .  A
C1435      C1689   1.479       .  S
C1435      C1436   1.402       .  A
C1436      H1437   1.084       .  S
O1439     Mg1441   2.151       .  S
O1439     Mg1447   2.151       .  S
O1439      C1474   1.232       .  S
C1440      O1453   1.236       .  S
C1440      O1477   1.271       .  A
C1440      H1479   1.081       .  S
Mg1441     O1470   2.166       .  S
Mg1441     O1485   2.297       .  S
Mg1441     O1481   2.270       .  S
Mg1441     O1452   2.290       .  S
O1442     Mg1484   2.161       .  S
O1442     Mg1467   2.159       .  S
O1442      C1463   1.235       .  S
O1443      C1474   1.267       .  A
O1443     Mg1467   2.297       .  S
C1444      O1446   1.273       .  A
C1444      O1458   1.274       .  A
C1444      C1669   1.491       .  S
O1445      C1473   1.270       .  A
O1445     Mg1447   2.307       .  S
O1446     Mg1478   2.275       .  S
Mg1447     O1453   2.164       .  S
Mg1447     O3585   2.274       .  S
Mg1447     O1449   2.306       .  S
C1448      O1486   1.271       .  A
C1448      O1454   1.276       .  A
C1448      C1636   1.494       .  S
O1449      C1456   1.275       .  A
H1450      C1463   1.081       .  S
C1451      O1465   1.234       .  S
C1451      O1466   1.269       .  A
C1451      H1476   1.081       .  S
O1452      C1475   1.268       .  A
O1453     Mg1467   2.175       .  S
C1455      O1468   1.271       .  A
C1455      O1460   1.275       .  A
C1455      C1659   1.483       .  S
C1456      O1483   1.273       .  A
C1456      C3823   1.495       .  S
Mg1457     O1464   2.138       .  S
Mg1457     O1465   2.156       .  S
Mg1457     O1458   2.292       .  S
Mg1457     O1459   2.300       .  S
O1459      C1463   1.269       .  A
O1460     Mg1467   2.302       .  S
O1461      C1480   1.273       .  A
O1461     Mg3571   2.274   1_455  S
O1462      C1482   1.272       .  A
O1462     Mg1478   2.279       .  S
O1464     Mg1478   2.159       .  S
O1464      C1475   1.235       .  S
O1465     Mg1484   2.141       .  S
O1466     Mg1478   2.297       .  S
Mg1467     O1483   2.273       .  S
O1468     Mg1484   2.257       .  S
H1469      C1474   1.081       .  S
O1470     Mg1478   2.154       .  S
O1470      C1473   1.235       .  S
H1471      C1473   1.081       .  S
H1472      C1475   1.081       .  S
O1477     Mg1484   2.306       .  S
C1480      O3609   1.274   1_455  A
C1480      C1649   1.490       .  S
O1481      C1482   1.272       .  A
C1482      C1676   1.477       .  S
O1485      C3604   1.274       .  A
O1487     Mg1489   2.150       .  S
O1487     Mg1495   2.157       .  S
O1487      C1522   1.235       .  S
C1488      O1501   1.235       .  S
C1488      O1525   1.270       .  A
C1488      H1527   1.081       .  S
Mg1489     O1518   2.157       .  S
Mg1489     O1533   2.284       .  S
Mg1489     O1529   2.265       .  S
Mg1489     O1500   2.302       .  S
O1490     Mg1532   2.148       .  S
O1490     Mg1515   2.148       .  S
O1490      C1511   1.235       .  S
O1491      C1522   1.270       .  A
O1491     Mg1515   2.305       .  S
C1492      O1494   1.271       .  A
C1492      O1506   1.275       .  A
C1492      C3810   1.491       .  S
O1493      C1521   1.269       .  A
O1493     Mg1495   2.302       .  S
O1494     Mg1526   2.257       .  S
Mg1495     O1501   2.157       .  S
Mg1495     O1509   2.277       .  S
Mg1495     O1497   2.286       .  S
C1496      O1534   1.272       .  A
C1496      O3626   1.273       .  A
C1496      C1586   1.492       .  S
O1497      C1504   1.272       .  A
H1498      C1511   1.081       .  S
C1499      O1513   1.235       .  S
C1499      O1514   1.270       .  A
C1499      H1524   1.081       .  S
O1500      C1523   1.269       .  A
O1501     Mg1515   2.155       .  S
O1502      C3620   1.273       .  A
O1502     Mg1532   2.286       .  S
C1503      O1516   1.273       .  A
C1503      O1508   1.273       .  A
C1503      C1626   1.492       .  S
C1504      O1531   1.270       .  A
C1504      C1616   1.486       .  S
Mg1505     O1512   2.159       .  S
Mg1505     O1513   2.152       .  S
Mg1505     O1506   2.301       .  S
Mg1505     O1507   2.308       .  S
Mg1505     O3658   2.281       .  S
O1507      C1511   1.271       .  A
O1508     Mg1515   2.297       .  S
O1509      C1528   1.271       .  A
O1510      C1530   1.275       .  A
O1510     Mg1526   2.309       .  S
O1512     Mg1526   2.159       .  S
O1512      C1523   1.234       .  S
O1513     Mg1532   2.160       .  S
O1514     Mg1526   2.306       .  S
Mg1515     O1531   2.257       .  S
O1516     Mg1532   2.290       .  S
H1517      C1522   1.081       .  S
O1518     Mg1526   2.148       .  S
O1518      C1521   1.234       .  S
H1519      C1521   1.081       .  S
H1520      C1523   1.081       .  S
O1525     Mg1532   2.305       .  S
C1528      O1533   1.272       .  A
C1528      C1596   1.489       .  S
O1529      C1530   1.271       .  A
C1530      C1609   1.490       .  S
O1534     Mg3629   2.281   1_455  S
C1535      C1876   1.479       .  S
C1535      C1536   1.408       .  A
C1535      C1540   1.399       .  A
C1536      C1829   1.478       .  S
C1536      C1537   1.396       .  A
C1537      H1542   1.085       .  S
C1537      C1538   1.405       .  A
C1538      C1606   1.488       .  S
C1538      C1539   1.423       .  A
C1539      C1656   1.484       .  S
C1539      C1540   1.407       .  A
C1540      H1541   1.084       .  S
C1543      C1979   1.479       .  S
C1543      C1544   1.413       .  A
C1543      C1548   1.404   1_455  A
C1544      C2089   1.481       .  S
C1544      C1545   1.399   1_455  A
C1545      H1550   1.085       .  S
C1545      C3670   1.401       .  A
C1546      C1679   1.479       .  S
C1546      C3669   1.401       .  A
C1546      C1547   1.418       .  A
C1547      C1629   1.492       .  S
C1547      C3672   1.405       .  A
C1548      H1549   1.085   1_655  S
C1548      C3671   1.405       .  A
C1551      C1939   1.470       .  S
C1551      C1552   1.410       .  A
C1551      C1556   1.400       .  A
C1552      C2099   1.479       .  S
C1552      C1553   1.398       .  A
C1553      H1558   1.084       .  S
C1553      C1554   1.401       .  A
C1554      C1759   1.472       .  S
C1554      C1555   1.413       .  A
C1555      C1619   1.480       .  S
C1555      C1556   1.399       .  A
C1556      H1557   1.084       .  S
C1559      C1986   1.490       .  S
C1559      C1560   1.418       .  A
C1559      C1564   1.408       .  A
C1560      C1929   1.485       .  S
C1560      C1561   1.404   1_565  A
C1561      H1566   1.084       .  S
C1562      C1666   1.485       .  S
C1562      C1563   1.414       .  A
C1563      C1746   1.484       .  S
C1564      H1565   1.084       .  S
C1567      C3893   1.491       .  S
C1567      C1568   1.413   1_656  A
C1567      C2634   1.411       .  A
C1568      C1809   1.480       .  S
C1569      C1856   1.482       .  S
C1569      C1570   1.412   1_545  A
C1570      C1779   1.492       .  S
C1570      C3695   1.411   1_454  A
C1571      C1816   1.476       .  S
C1571      C3694   1.411   1_556  A
C1571      C1572   1.413       .  A
C1572      C2629   1.411   1_565  A
C1573      C1919   1.486       .  S
C1573      C1574   1.414       .  A
C1573      C1578   1.416       .  A
C1574      C1969   1.487       .  S
C1574      C1575   1.413       .  A
C1575      C2079   1.489       .  S
C1575      C1576   1.415       .  A
C1576      C1909   1.483       .  S
C1576      C1577   1.413       .  A
C1577      C1959   1.495       .  S
C1577      C1578   1.415       .  A
C1578      C2066   1.484       .  S
C1579      C1589   1.487       .  S
C1579      C1580   1.412       .  A
C1579      C1584   1.414       .  A
C1580      C1716   1.483       .  S
C1580      C1581   1.413       .  A
C1581      C1639   1.490       .  S
C1581      C1582   1.415       .  A
C1582      C1599   1.485       .  S
C1582      C1583   1.419       .  A
C1583      C1709   1.489       .  S
C1583      C1584   1.416       .  A
C1584      C1646   1.491       .  S
C1585      C1586   1.414       .  A
C1585      C1590   1.394       .  A
C1585      F1592   1.358       .  S
C1586      C1587   1.414       .  A
C1587      C1588   1.403       .  A
C1587      F1594   1.357       .  S
C1588      C1589   1.403       .  A
C1588      F1593   1.357       .  S
C1589      C1590   1.400       .  A
C1590      F1591   1.358       .  S
C1595      C1596   1.414       .  A
C1595      C1600   1.395       .  A
C1595      F1602   1.358       .  S
C1596      C1597   1.411       .  A
C1597      C1598   1.403       .  A
C1597      F1604   1.358       .  S
C1598      C1599   1.405       .  A
C1598      F1603   1.357       .  S
C1599      C1600   1.399       .  A
C1600      F1601   1.358       .  S
C1605      C1606   1.407       .  A
C1605      C1610   1.399       .  A
C1605      F1612   1.358       .  S
C1606      C1607   1.404       .  A
C1607      C1608   1.403       .  A
C1607      F1614   1.358       .  S
C1608      C1609   1.414       .  A
C1608      F1613   1.358       .  S
C1609      C1610   1.409       .  A
C1610      F1611   1.358       .  S
C1615      C1616   1.414       .  A
C1615      C1620   1.400       .  A
C1615      F1622   1.358       .  S
C1616      C1617   1.412       .  A
C1617      C1618   1.395       .  A
C1617      F1624   1.358       .  S
C1618      C1619   1.403       .  A
C1618      F1623   1.358       .  S
C1619      C1620   1.401       .  A
C1620      F1621   1.358       .  S
C1625      C1626   1.411       .  A
C1625      C1630   1.404       .  A
C1625      F3756   1.357       .  S
C1626      C1627   1.411       .  A
C1627      C1628   1.400       .  A
C1627      F1634   1.358       .  S
C1628      C1629   1.405       .  A
C1628      F1633   1.358       .  S
C1629      C1630   1.407       .  A
C1630      F3755   1.357       .  S
F1631      C3754   1.357       .  S
F1632      C3749   1.357   1_455  S
C1635      C1636   1.413       .  A
C1635      C1640   1.399       .  A
C1635      F1642   1.358       .  S
C1636      C1637   1.415       .  A
C1637      C1638   1.401       .  A
C1637      F1644   1.358       .  S
C1638      C1639   1.402       .  A
C1638      F1643   1.358       .  S
C1639      C1640   1.402       .  A
C1640      F1641   1.357       .  S
C1645      C1646   1.401       .  A
C1645      C1650   1.399       .  A
C1645      F1652   1.358       .  S
C1646      C1647   1.405       .  A
C1647      C1648   1.400       .  A
C1647      F1654   1.357       .  S
C1648      C1649   1.411       .  A
C1648      F1653   1.358       .  S
C1649      C1650   1.415       .  A
C1650      F1651   1.358       .  S
C1655      C1656   1.407       .  A
C1655      C1660   1.400       .  A
C1655      F1662   1.358       .  S
C1656      C1657   1.404       .  A
C1657      C1658   1.400       .  A
C1657      F1664   1.358       .  S
C1660      F1661   1.358       .  S
C1665      C1666   1.403       .  A
C1665      C1670   1.398       .  A
C1665      F1672   1.357       .  S
C1666      C1667   1.403       .  A
C1667      C1668   1.401       .  A
C1667      F1674   1.358       .  S
C1668      C1669   1.413       .  A
C1668      F1673   1.358       .  S
C1669      C1670   1.413       .  A
C1670      F1671   1.358       .  S
C1675      C1676   1.406       .  A
C1675      C3804   1.399       .  A
C1675      F3806   1.358       .  S
C1676      C1677   1.410       .  A
C1677      C1678   1.396       .  A
C1677      F1684   1.358       .  S
C1678      C1679   1.402       .  A
C1678      F1683   1.358       .  S
C1679      C3804   1.406       .  A
C1680      C3799   1.399       .  A
C1680      C3803   1.406       .  A
C1680      F1681   1.358   1_655  S
F1682      C3799   1.358   1_455  S
C1685      C1686   1.413       .  A
C1685      C1690   1.396       .  A
C1685      F1692   1.358       .  S
C1686      C3616   1.491   1_455  S
C1686      C3811   1.415   1_455  A
C1687      C3810   1.415       .  A
C1687      C3812   1.400       .  A
C1687      F1694   1.358       .  S
C1688      C3811   1.400   1_455  A
C1688      C1689   1.401       .  A
C1688      F3817   1.358       .  S
C1689      C1690   1.402       .  A
C1690      F1691   1.358       .  S
F1693      C3812   1.358       .  S
C1695      C1696   1.401       .  A
C1695      C1700   1.402       .  A
C1695      F1702   1.358       .  S
C1696      C1697   1.402       .  A
C1697      C3822   1.401       .  A
C1697      F3828   1.358       .  S
C1698      C3821   1.401       .  A
C1698      C3823   1.413       .  A
C1698      F1703   1.358       .  S
C1699      C3580   1.495   1_455  S
C1699      C3822   1.413       .  A
C1699      C1700   1.416       .  A
C1700      F1701   1.358       .  S
F1704      C3821   1.358       .  S
C1705      C1706   1.414       .  A
C1705      C1710   1.403       .  A
C1705      F1712   1.358       .  S
C1706      C1707   1.414       .  A
C1707      C1708   1.399       .  A
C1707      F1714   1.358       .  S
C1708      C1709   1.402       .  A
C1708      F1713   1.357       .  S
C1709      C1710   1.404       .  A
C1710      F1711   1.357       .  S
C1715      C1716   1.399       .  A
C1715      C1720   1.395       .  A
C1715      F1722   1.358       .  S
C1716      C1717   1.404       .  A
C1717      C1718   1.400       .  A
C1717      F1724   1.357       .  S
C1718      C1719   1.409       .  A
C1718      F1723   1.358       .  S
C1719      C1720   1.413       .  A
C1720      F1721   1.358       .  S
C1725      C1726   1.411       .  A
C1725      C1730   1.399       .  A
C1725      F1732   1.358   1_565  S
C1726      C1727   1.412       .  A
C1727      C1728   1.400       .  A
C1727      F1734   1.358       .  S
C1728      C1729   1.403       .  A
C1728      F1733   1.358       .  S
C1729      C1730   1.404       .  A
C1730      F1731   1.358       .  S
C1735      C1736   1.401       .  A
C1735      C1740   1.397       .  A
C1735      F1742   1.357       .  S
C1736      C1737   1.400       .  A
C1737      C1738   1.396       .  A
C1737      F1744   1.358       .  S
C1738      C1739   1.414       .  A
C1738      F1743   1.358       .  S
C1739      C1740   1.411       .  A
C1740      F1741   1.358       .  S
C1745      C1746   1.401       .  A
C1745      C1750   1.397       .  A
C1745      F1752   1.358       .  S
C1747      F1754   1.358       .  S
C1748      C1749   1.412       .  A
C1749      C1750   1.416       .  A
C1750      F1751   1.358       .  S
C1755      C1756   1.407       .  A
C1755      C1760   1.396       .  A
C1755      F1762   1.358       .  S
C1756      C1757   1.409       .  A
C1757      C1758   1.391       .  A
C1757      F1764   1.358       .  S
C1758      C1759   1.399       .  A
C1758      F1763   1.358       .  S
C1759      C1760   1.405       .  A
C1760      F1761   1.358       .  S
C1765      C1766   1.412       .  A
C1765      C1770   1.402       .  A
C1765      F1772   1.358       .  S
C1766      C3891   1.416   1_556  A
C1767      C3890   1.416   1_554  A
C1767      C1768   1.399       .  A
C1767      F1774   1.358       .  S
C1768      C3893   1.401   1_554  A
C1768      F1773   1.358       .  S
C1769      C3691   1.491       .  S
C1769      C3892   1.401   1_556  A
C1769      C1770   1.404       .  A
C1770      F1771   1.357       .  S
C1775      C3900   1.415       .  A
C1775      C1780   1.402       .  A
C1775      F1782   1.358       .  S
C1776      C3899   1.415       .  A
C1776      C1777   1.415   1_554  A
C1777      C1778   1.401       .  A
C1777      F1784   1.358       .  S
C1778      C1779   1.402   1_556  A
C1778      F1783   1.357       .  S
C1779      C3904   1.403       .  A
C1780      C3903   1.403       .  A
C1780      F1781   1.357       .  S
C1785      C1786   1.409       .  A
C1785      C1790   1.404       .  A
C1785      F3916   1.358   1_455  S
C1786      C1787   1.412       .  A
C1787      C1788   1.403       .  A
C1787      F1794   1.358       .  S
C1788      C1789   1.406       .  A
C1788      F1793   1.357       .  S
C1789      C1790   1.409       .  A
C1790      F1791   1.358       .  S
F1792      C3909   1.358       .  S
C1795      C1796   1.409       .  A
C1795      C1800   1.406       .  A
C1795      F1802   1.357       .  S
C1796      C1797   1.414       .  A
C1797      C1798   1.401       .  A
C1797      F1804   1.358       .  S
C1798      C1799   1.402       .  A
C1798      F1803   1.358       .  S
C1799      C1800   1.408       .  A
C1800      F1801   1.357       .  S
C1805      C1806   1.413       .  A
C1805      C1810   1.398       .  A
C1805      F1812   1.358       .  S
C1806      C1807   1.413   1_554  A
C1807      C1808   1.396       .  A
C1807      F1814   1.357       .  S
C1808      C1809   1.400   1_556  A
C1808      F1813   1.358       .  S
C1809      C1810   1.400       .  A
C1810      F1811   1.357       .  S
C1815      C1816   1.401       .  A
C1815      C1820   1.399       .  A
C1815      F1822   1.357       .  S
C1816      C1817   1.397   1_556  A
C1817      C1818   1.393       .  A
C1817      F1824   1.358       .  S
C1818      C1819   1.417   1_554  A
C1818      F1823   1.358       .  S
C1819      C1820   1.411       .  A
C1820      F1821   1.357       .  S
C1825      C1826   1.410       .  A
C1825      C1830   1.397       .  A
C1825      F1832   1.358       .  S
C1826      C1827   1.407       .  A
C1827      C1828   1.396       .  A
C1827      F1834   1.358       .  S
C1828      C1829   1.404       .  A
C1828      F1833   1.357       .  S
C1829      C1830   1.402       .  A
C1830      F1831   1.358       .  S
C1835      C1836   1.411       .  A
C1835      C1840   1.394       .  A
C1835      F1842   1.358       .  S
C1836      C1837   1.413       .  A
C1837      C1838   1.396       .  A
C1837      F1844   1.357       .  S
C1838      C1839   1.401       .  A
C1838      F1843   1.358       .  S
C1839      C1840   1.402       .  A
C1840      F1841   1.358       .  S
C1845      C1850   1.394       .  A
C1845      F1852   1.357   1_565  S
C1846      C1847   1.412       .  A
C1847      C1848   1.401       .  A
C1847      F1854   1.357       .  S
C1848      C1849   1.402       .  A
C1848      F1853   1.357       .  S
C1850      F1851   1.358       .  S
C1855      F1862   1.358       .  S
C1856      C1857   1.404       .  A
C1857      C1858   1.402   1_545  A
C1857      F1864   1.357   1_545  S
C1858      C1859   1.411   1_565  A
C1858      F1863   1.357       .  S
C1859      C1860   1.415   1_554  A
C1865      C1866   1.405       .  A
C1865      C1870   1.401       .  A
C1865      F1872   1.357       .  S
C1866      C1867   1.409       .  A
C1867      C1868   1.400       .  A
C1867      F1874   1.358       .  S
C1868      C1869   1.408       .  A
C1868      F1873   1.358       .  S
C1869      C1870   1.411       .  A
C1870      F1871   1.358       .  S
C1875      C1876   1.400       .  A
C1875      C1880   1.398       .  A
C1875      F1882   1.358       .  S
C1876      C1877   1.403       .  A
C1877      C1878   1.396       .  A
C1877      F1884   1.358       .  S
C1878      C1879   1.412       .  A
C1878      F1883   1.358       .  S
C1879      C1880   1.415       .  A
C1880      F1881   1.358       .  S
C1885      C1886   1.405       .  A
C1885      C1890   1.402       .  A
C1885      F1892   1.357       .  S
C1886      C1887   1.405       .  A
C1887      C1888   1.405       .  A
C1887      F1894   1.358       .  S
C1888      C1889   1.413       .  A
C1888      F1893   1.357       .  S
C1889      C1890   1.415       .  A
C1890      F1891   1.358       .  S
C1895      C1896   1.410       .  A
C1895      C1900   1.397       .  A
C1895      F1902   1.358       .  S
C1896      C1897   1.415       .  A
C1897      C1898   1.393       .  A
C1897      F1904   1.358       .  S
C1898      C1899   1.397       .  A
C1898      F1903   1.358       .  S
C1899      C1900   1.402       .  A
C1900      F1901   1.358       .  S
C1905      C1906   1.412       .  A
C1905      C1910   1.397       .  A
C1905      F1912   1.358       .  S
C1906      C1907   1.413       .  A
C1907      C1908   1.396       .  A
C1907      F1914   1.358       .  S
C1908      C1909   1.401       .  A
C1908      F1913   1.358       .  S
C1909      C1910   1.402       .  A
C1910      F1911   1.358       .  S
C1915      C1916   1.411       .  A
C1915      C1920   1.403       .  A
C1915      F1922   1.358       .  S
C1916      C1917   1.414       .  A
C1917      C1918   1.397       .  A
C1917      F1924   1.358       .  S
C1918      C1919   1.400       .  A
C1918      F1923   1.358       .  S
C1919      C1920   1.405       .  A
C1920      F1921   1.357       .  S
C1925      C1926   1.410   1_545  A
C1926      C1927   1.414       .  A
C1927      C1928   1.397       .  A
C1927      F1934   1.358       .  S
C1928      C1929   1.402       .  A
C1928      F1933   1.358       .  S
C1930      F1931   1.358       .  S
C1935      C1936   1.413       .  A
C1935      C1940   1.392       .  A
C1935      F1942   1.358       .  S
C1936      C1937   1.413       .  A
C1937      C1938   1.397       .  A
C1937      F1944   1.358       .  S
C1938      C1939   1.399       .  A
C1938      F1943   1.358       .  S
C1939      C1940   1.399       .  A
C1940      F1941   1.358       .  S
C1945      C1946   1.411       .  A
C1945      C1950   1.398       .  A
C1945      F1952   1.358       .  S
C1946      C1947   1.414       .  A
C1947      C1948   1.396       .  A
C1947      F1954   1.358       .  S
C1948      C1949   1.401       .  A
C1948      F1953   1.358       .  S
C1949      C1950   1.404       .  A
C1950      F1951   1.357       .  S
C1955      C1956   1.413       .  A
C1955      C1960   1.397       .  A
C1955      F1962   1.358       .  S
C1956      C1957   1.411       .  A
C1957      C1958   1.403       .  A
C1957      F1964   1.358       .  S
C1958      C1959   1.405       .  A
C1958      F1963   1.357       .  S
C1959      C1960   1.403       .  A
C1960      F1961   1.358       .  S
C1965      C1966   1.412       .  A
C1965      C1970   1.400       .  A
C1965      F1972   1.357       .  S
C1966      C1967   1.416       .  A
C1967      C1968   1.398       .  A
C1967      F1974   1.358       .  S
C1968      C1969   1.400       .  A
C1968      F1973   1.358       .  S
C1969      C1970   1.402       .  A
C1970      F1971   1.357       .  S
C1975      C1976   1.409       .  A
C1975      C4104   1.401   1_455  A
C1975      F4106   1.358   1_455  S
C1976      C1977   1.413       .  A
C1977      C1978   1.398       .  A
C1977      F1984   1.358       .  S
C1978      C1979   1.401       .  A
C1978      F1983   1.358       .  S
C1979      C4104   1.404   1_455  A
C1980      C4099   1.401       .  A
C1980      C4103   1.404       .  A
C1980      F1981   1.358       .  S
F1982      C4099   1.358       .  S
C1985      C1986   1.404       .  A
C1985      C1990   1.401       .  A
C1985      F1992   1.358       .  S
C1986      C1987   1.406       .  A
C1987      C1988   1.401       .  A
C1987      F1994   1.357   1_565  S
C1988      C1989   1.411       .  A
C1988      F1993   1.358       .  S
C1989      C1990   1.413       .  A
C1990      F1991   1.358       .  S
C1995      C1996   1.415       .  A
C1995      C2000   1.401       .  A
C1995      F4126   1.358       .  S
C1996      C3256   1.493       .  S
C1996      C1997   1.410       .  A
C1997      C1998   1.403       .  A
C1997      F2004   1.358       .  S
C1998      C1999   1.406       .  A
C1998      F2003   1.358       .  S
C1999      C2000   1.401       .  A
C2000      F2001   1.358       .  S
F2002      C4119   1.358       .  S
C2005      C2006   1.412       .  A
C2005      C2010   1.402       .  A
C2005      F2012   1.358       .  S
C2006      C2007   1.411       .  A
C2007      C2008   1.404       .  A
C2007      F4138   1.358       .  S
C2008      C2009   1.407       .  A
C2008      F2013   1.358       .  S
C2009      C2010   1.404       .  A
C2010      F2011   1.358       .  S
F2014      C4131   1.358   1_455  S
C2015      C2016   1.412       .  A
C2015      C2020   1.401       .  A
C2015      F2022   1.357       .  S
C2016      C2017   1.410       .  A
C2017      C2018   1.401       .  A
C2017      F2024   1.358       .  S
C2018      C2019   1.407       .  A
C2018      F2023   1.358       .  S
C2019      C2020   1.404       .  A
C2020      F2021   1.358       .  S
C2025      C2026   1.400       .  A
C2025      C2030   1.397       .  A
C2025      F2032   1.358       .  S
C2026      C2027   1.403       .  A
C2027      C2028   1.400       .  A
C2027      F2034   1.358       .  S
C2028      C2029   1.413       .  A
C2028      F2033   1.358       .  S
C2029      C2030   1.414       .  A
C2035      C2036   1.413       .  A
C2035      C2040   1.396       .  A
C2035      F2042   1.358       .  S
C2036      C2037   1.413       .  A
C2037      C2038   1.398       .  A
C2037      F2044   1.358       .  S
C2038      C2039   1.401       .  A
C2038      F2043   1.358       .  S
C2039      C2040   1.401       .  A
C2040      F2041   1.357       .  S
C2045      C2046   1.412       .  A
C2045      C2050   1.400       .  A
C2045      F2052   1.358       .  S
C2046      C2047   1.412       .  A
C2047      C2048   1.393       .  A
C2047      F2054   1.358       .  S
C2048      C2049   1.399       .  A
C2048      F2053   1.358       .  S
C2049      C2050   1.402       .  A
C2050      F2051   1.358       .  S
C2055      C2056   1.404       .  A
C2055      C2060   1.400       .  A
C2055      F2062   1.358       .  S
C2056      C2057   1.403       .  A
C2057      C2058   1.402       .  A
C2057      F2064   1.358       .  S
C2058      F2063   1.358       .  S
C2065      C2066   1.401       .  A
C2065      C2070   1.392       .  A
C2065      F2072   1.357       .  S
C2066      C2067   1.402       .  A
C2067      C2068   1.401       .  A
C2067      F2074   1.357       .  S
C2068      C2069   1.414       .  A
C2068      F2073   1.358       .  S
C2069      C2070   1.411       .  A
C2070      F2071   1.357       .  S
C2075      C2076   1.409       .  A
C2075      C2080   1.402       .  A
C2075      F2082   1.358       .  S
C2076      C2077   1.414       .  A
C2077      C2078   1.396       .  A
C2077      F2084   1.358       .  S
C2078      C2079   1.399       .  A
C2078      F2083   1.358       .  S
C2079      C2080   1.406       .  A
C2080      F2081   1.357       .  S
C2085      C2086   1.413       .  A
C2085      C2090   1.397       .  A
C2085      F2092   1.358       .  S
C2086      C2087   1.415   1_455  A
C2087      C2088   1.403       .  A
C2087      F4218   1.358       .  S
C2088      C2089   1.403   1_655  A
C2088      F4217   1.358       .  S
C2089      C2090   1.401       .  A
C2090      F2091   1.358       .  S
F2093      C4212   1.358       .  S
F2094      C4211   1.358       .  S
C2095      C2096   1.407       .  A
C2095      C2100   1.401       .  A
C2095      F2102   1.357       .  S
C2096      C2097   1.412       .  A
C2097      C2098   1.395       .  A
C2097      F2104   1.358       .  S
C2098      C2099   1.399       .  A
C2098      F2103   1.358       .  S
C2099      C2100   1.406       .  A
C2100      F2101   1.357       .  S
C2105      C2106   1.399       .  A
C2105      C2110   1.394       .  A
C2105      F2112   1.358       .  S
C2106      C2107   1.401       .  A
C2107      C4232   1.399       .  A
C2107      F4238   1.358       .  S
C2108      C4231   1.399       .  A
C2108      C4233   1.413       .  A
C2108      F2113   1.358   1_655  S
C2109      C3204   1.486       .  S
C2109      C4232   1.413       .  A
C2109      C2110   1.413       .  A
C2110      F2111   1.358       .  S
F2114      C4231   1.358       .  S
C2115      C2116   1.412       .  A
C2115      C2120   1.402       .  A
C2115      F2122   1.358       .  S
C2116      C2117   1.412       .  A
C2117      C2118   1.398       .  A
C2117      F2124   1.357       .  S
C2118      C2119   1.402       .  A
C2118      F2123   1.358       .  S
C2119      C2120   1.406       .  A
C2120      F2121   1.358       .  S
O2125     Mg2127   2.152       .  S
O2125     Mg2133   2.156       .  S
O2125      C2160   1.235       .  S
C2126      O2139   1.233       .  S
C2126      O2163   1.268       .  A
C2126      H2165   1.081       .  S
Mg2127     O2156   2.160       .  S
Mg2127     O2171   2.284       .  S
Mg2127     O2167   2.269       .  S
Mg2127     O2138   2.302       .  S
O2128     Mg2170   2.160       .  S
O2128     Mg2153   2.144       .  S
O2128      C2149   1.236       .  S
O2129      C2160   1.270       .  A
O2129     Mg2153   2.304       .  S
C2130      O2132   1.271       .  A
C2130      O2144   1.270       .  A
C2130      C3158   1.480       .  S
O2131      C2159   1.270       .  A
O2131     Mg2133   2.305       .  S
O2132     Mg2164   2.277       .  S
Mg2133     O2139   2.154       .  S
Mg2133     O2135   2.295       .  S
C2134      O2172   1.269       .  A
C2134      O2140   1.272       .  A
C2134      C3131   1.487       .  S
O2135      C2142   1.274       .  A
H2136      C2149   1.081       .  S
C2137      O2151   1.235       .  S
C2137      O2152   1.271       .  A
C2137      H2162   1.081       .  S
O2138      C2161   1.269       .  A
O2139     Mg2153   2.158       .  S
O2140     Mg2170   2.277       .  S
C2141      O2154   1.271       .  A
C2141      O2146   1.274       .  A
C2141      C3178   1.490       .  S
C2142      O2169   1.269       .  A
Mg2143     O2150   2.147       .  S
Mg2143     O2151   2.150       .  S
Mg2143     O2144   2.277       .  S
Mg2143     O2145   2.301       .  S
Mg2143     O2172   2.259       .  S
O2145      C2149   1.270       .  A
O2146     Mg2153   2.307       .  S
O2147      C2166   1.273       .  A
O2148      C2168   1.273       .  A
O2148     Mg2164   2.295       .  S
O2150     Mg2164   2.145       .  S
O2150      C2161   1.234       .  S
O2151     Mg2170   2.143       .  S
O2152     Mg2164   2.309       .  S
Mg2153     O2169   2.246       .  S
O2154     Mg2170   2.262       .  S
H2155      C2160   1.081       .  S
O2156     Mg2164   2.155       .  S
O2156      C2159   1.235       .  S
H2157      C2159   1.081       .  S
H2158      C2161   1.081       .  S
O2163     Mg2170   2.296       .  S
C2166      C3138   1.488       .  S
O2167      C2168   1.271       .  A
C2168      C3148   1.493       .  S
C2173      C3181   1.484       .  S
C2173      C2174   1.420       .  A
C2173      C2178   1.406       .  A
C2174      C3118   1.484       .  S
C2174      C2175   1.404       .  A
C2175      H2180   1.084       .  S
C2175      C2176   1.398       .  A
C2176      C3111   1.474       .  S
C2176      C2177   1.407       .  A
C2177      C3101   1.478       .  S
C2177      C2178   1.399       .  A
C2178      H2179   1.084       .  S
C2181      C3088   1.480       .  S
C2181      C2182   1.406       .  A
C2181      C2186   1.399       .  A
C2182      C3168   1.475       .  S
C2182      C2183   1.399       .  A
C2183      H2188   1.084       .  S
C2183      C2184   1.406       .  A
C2184      C3071   1.490       .  S
C2184      C2185   1.425       .  A
C2185      C3081   1.489       .  S
C2185      C2186   1.409       .  A
C2186      H2187   1.084       .  S
O2189     Mg2191   2.145       .  S
O2189     Mg2197   2.159       .  S
O2189      C2224   1.234       .  S
C2190      O2203   1.235       .  S
C2190      O2227   1.269       .  A
C2190      H2229   1.081       .  S
Mg2191     O2220   2.161       .  S
Mg2191     O3297   2.300       .  S
Mg2191     O2231   2.252       .  S
Mg2191     O2202   2.303       .  S
O2192     Mg2234   2.156       .  S
O2192     Mg2217   2.150       .  S
O2192      C2213   1.235       .  S
O2193      C2224   1.268       .  A
O2193     Mg2217   2.294       .  S
C2194      O2196   1.276       .  A
C2194      O2208   1.276       .  A
O2195      C2223   1.271       .  A
O2195     Mg2197   2.307       .  S
O2196     Mg2228   2.289       .  S
Mg2197     O2203   2.143       .  S
Mg2197     O3273   2.272       .  S
Mg2197     O2199   2.317       .  S
C2198      O2236   1.274       .  A
C2198      C3028   1.493       .  S
O2199      C2206   1.277       .  A
H2200      C2213   1.081       .  S
C2201      O2215   1.233       .  S
C2201      O2216   1.269       .  A
C2201      H2226   1.081       .  S
O2202      C2225   1.270       .  A
O2203     Mg2217   2.163       .  S
O2204     Mg2234   2.284       .  S
C2205      O2218   1.272       .  A
C2205      O2210   1.273       .  A
C2205      C3038   1.488       .  S
C2206      O2233   1.272       .  A
C2206      C3051   1.493       .  S
Mg2207     O2214   2.164       .  S
Mg2207     O2215   2.154       .  S
Mg2207     O2208   2.307       .  S
Mg2207     O2209   2.305       .  S
O2209      C2213   1.270       .  A
O2210     Mg2217   2.292       .  S
O2211      C2230   1.272       .  A
O2211     Mg3259   2.270   1_545  S
O2212      C2232   1.278       .  A
O2212     Mg2228   2.324       .  S
O2214     Mg2228   2.173       .  S
O2214      C2225   1.235       .  S
O2215     Mg2234   2.157       .  S
O2216     Mg2228   2.302       .  S
Mg2217     O2233   2.266       .  S
O2218     Mg2234   2.270       .  S
H2219      C2224   1.081       .  S
O2220     Mg2228   2.166       .  S
O2220      C2223   1.235       .  S
H2221      C2223   1.081       .  S
H2222      C2225   1.081       .  S
O2227     Mg2234   2.294       .  S
C2230      O2235   1.274       .  A
C2230      C3018   1.490       .  S
O2231      C2232   1.270       .  A
C2232      C3121   1.491       .  S
O2235     Mg3253   2.300   1_545  S
O2237     Mg2239   2.142       .  S
O2237     Mg2245   2.164       .  S
O2237      C2272   1.236       .  S
C2238      O2251   1.236       .  S
C2238      O2275   1.271       .  A
C2238      H2277   1.081       .  S
Mg2239     O2268   2.152       .  S
Mg2239     O2283   2.291       .  S
Mg2239     O2279   2.267       .  S
Mg2239     O2250   2.300       .  S
O2240     Mg2282   2.147       .  S
O2240     Mg2265   2.139       .  S
O2240      C2261   1.233       .  S
O2241      C2272   1.270       .  A
O2241     Mg2265   2.301       .  S
C2242      O2244   1.267       .  A
C2242      O2256   1.275       .  A
C2242      C4153   1.490       .  S
O2243      C2271   1.266       .  A
O2243     Mg2245   2.290       .  S
O2244     Mg2276   2.233       .  S
Mg2245     O2251   2.162       .  S
Mg2245     O2259   2.282       .  S
Mg2245     O2247   2.274       .  S
C2246      O2284   1.271       .  A
C2246      O3314   1.276       .  A
C2246      C2968   1.487       .  S
O2247      C2254   1.271       .  A
H2248      C2261   1.082       .  S
C2249      O2263   1.236       .  S
C2249      O2264   1.270       .  A
C2249      H2274   1.081       .  S
O2250      C2273   1.269       .  A
O2251     Mg2265   2.153       .  S
O2252      C3308   1.276       .  A
O2252     Mg2282   2.305       .  S
C2253      O2266   1.274       .  A
C2253      O2258   1.273       .  A
C2253      C2988   1.489       .  S
C2254      O2281   1.269       .  A
C2254      C2998   1.482       .  S
Mg2255     O2262   2.142       .  S
Mg2255     O2263   2.173       .  S
Mg2255     O2256   2.311       .  S
Mg2255     O2257   2.296       .  S
Mg2255     O3346   2.246       .  S
O2257      C2261   1.267       .  A
O2258     Mg2265   2.295       .  S
O2259      C2278   1.273       .  A
O2260      C2280   1.271       .  A
O2260     Mg2276   2.276       .  S
O2262     Mg2276   2.148       .  S
O2262      C2273   1.234       .  S
O2263     Mg2282   2.155       .  S
O2264     Mg2276   2.297       .  S
Mg2265     O2281   2.247       .  S
O2266     Mg2282   2.286       .  S
H2267      C2272   1.081       .  S
O2268     Mg2276   2.131       .  S
O2268      C2271   1.233       .  S
H2269      C2271   1.081       .  S
H2270      C2273   1.081       .  S
O2275     Mg2282   2.311       .  S
C2278      O2283   1.274       .  A
C2278      C2978   1.490       .  S
O2279      C2280   1.272       .  A
C2280      C3008   1.486       .  S
O2284     Mg3317   2.247   1_545  S
C2285      C3011   1.478       .  S
C2285      C2286   1.413       .  A
C2285      C2290   1.395       .  A
C2286      C3061   1.485       .  S
C2286      C2287   1.411       .  A
C2287      H2292   1.084       .  S
C2287      C2288   1.411       .  A
C2288      C2948   1.494       .  S
C2288      C2289   1.415       .  A
C2289      C2961   1.469       .  S
C2289      C2290   1.395       .  A
C2290      H2291   1.085       .  S
O2293     Mg2295   2.145   1_554  S
O2293     Mg3363   2.157       .  S
O2293      C2328   1.234       .  S
C2294      O2307   1.234       .  S
C2294      O2331   1.269       .  A
C2294      H2333   1.081       .  S
Mg2295     O3386   2.158   1_545  S
Mg2295     O3401   2.276   1_545  S
Mg2295     O3397   2.263   1_545  S
Mg2295     O2306   2.301       .  S
O2296     Mg3400   2.152   1_545  S
O2296     Mg2321   2.148       .  S
O2296      C2317   1.235       .  S
O2297      C2328   1.269       .  A
O2297     Mg2321   2.303       .  S
C2298      O2300   1.269       .  A
C2298      O2312   1.273       .  A
C2298      C2941   1.487       .  S
O2299      C2327   1.269   1_554  A
O2299     Mg2301   2.302       .  S
O2300     Mg2332   2.245       .  S
Mg2301     O3355   2.157       .  S
Mg2301     O2307   2.156       .  S
Mg2301     O2315   2.282       .  S
Mg2301     O3365   2.295       .  S
C2302      O2340   1.272       .  A
C2302      O2308   1.271   1_566  A
C2302      C2908   1.490       .  S
O2303      C2310   1.274       .  A
O2303     Mg3363   2.294       .  S
H2304      C2317   1.082       .  S
C2305      O2319   1.235       .  S
C2305      O2320   1.271       .  A
C2305      H2330   1.081   1_556  S
O2306      C2329   1.269       .  A
O2307     Mg3383   2.158       .  S
O2308     Mg3400   2.278   1_545  S
C2309      O2322   1.271       .  A
C2309      O2314   1.273       .  A
C2309      C3078   1.491       .  S
C2310      O2337   1.269       .  A
C2310      C3108   1.483       .  S
Mg2311     O2318   2.157       .  S
Mg2311     O3381   2.147       .  S
Mg2311     O3374   2.296       .  S
Mg2311     O2313   2.307   1_565  S
Mg2311     O2340   2.278       .  S
O2312     Mg3373   2.296       .  S
O2313      C2317   1.271   1_556  A
O2314     Mg2321   2.305       .  S
O2315      C2334   1.273       .  A
O2316      C2336   1.274       .  A
O2316     Mg2332   2.305       .  S
O2318     Mg3394   2.151       .  S
O2318      C2329   1.234   1_565  S
O2319     Mg3373   2.148       .  S
O2319     Mg2338   2.150   1_556  S
O2320     Mg2332   2.310       .  S
Mg2321     O3369   2.158       .  S
Mg2321     O2337   2.246       .  S
O2322     Mg3400   2.271   1_545  S
H2323      C2328   1.081   1_556  S
O2324     Mg3357   2.159       .  S
O2324     Mg2332   2.147       .  S
O2324      C2327   1.235       .  S
H2325      C2327   1.081       .  S
H2326      C2329   1.081       .  S
O2331     Mg2338   2.301       .  S
Mg2332     O3380   2.151       .  S
C2334      O2339   1.271   1_554  A
C2334      C2921   1.488       .  S
O2335      C2336   1.270       .  A
O2335     Mg3357   2.264       .  S
C2336      C2931   1.486       .  S
Mg2338     O3358   2.152       .  S
Mg2338     O3370   2.278       .  S
Mg2338     O3384   2.271       .  S
O2339     Mg3357   2.276       .  S
O2341     Mg2343   2.135   1_556  S
O2341     Mg2349   2.167       .  S
O2341      C2376   1.234       .  S
C2342      O2355   1.236       .  S
C2342      O2379   1.272       .  A
C2342      H2381   1.081       .  S
Mg2343     O2372   2.148       .  S
Mg2343     O2387   2.269       .  S
Mg2343     O2383   2.259       .  S
Mg2343     O2354   2.296       .  S
O2344     Mg2386   2.146       .  S
O2344     Mg2369   2.145       .  S
O2344      C2365   1.233       .  S
O2345      C2376   1.268       .  A
O2345     Mg2369   2.292       .  S
C2346      O2348   1.268       .  A
C2346      O2360   1.274       .  A
C2346      C3098   1.487       .  S
O2347      C2375   1.267   1_556  A
O2347     Mg2349   2.291       .  S
O2348     Mg2380   2.235       .  S
Mg2349     O2355   2.154       .  S
Mg2349     O2363   2.279       .  S
Mg2349     O2351   2.294       .  S
C2350      O2388   1.271       .  A
C2350      O2356   1.274   1_554  A
C2350      C2868   1.488       .  S
O2351      C2358   1.274       .  A
H2352      C2365   1.081       .  S
C2353      O2367   1.235       .  S
C2353      O2368   1.268       .  A
C2353      H2378   1.081   1_554  S
O2354      C2377   1.269       .  A
O2355     Mg2369   2.157       .  S
O2356     Mg2386   2.299       .  S
C2357      O2370   1.268       .  A
C2357      O2362   1.272       .  A
C2357      C2898   1.484       .  S
C2358      O2385   1.270       .  A
C2358      C2888   1.478       .  S
Mg2359     O2366   2.130       .  S
Mg2359     O2367   2.165       .  S
Mg2359     O2360   2.303       .  S
Mg2359     O2361   2.299       .  S
Mg2359     O2388   2.250       .  S
O2361      C2365   1.268   1_554  A
O2362     Mg2369   2.286       .  S
O2363      C2382   1.274       .  A
O2364      C2384   1.269       .  A
O2364     Mg2380   2.263       .  S
O2366     Mg2380   2.148       .  S
O2366      C2377   1.235       .  S
O2367     Mg2386   2.134   1_554  S
O2368     Mg2380   2.292       .  S
Mg2369     O2385   2.245       .  S
O2370     Mg2386   2.245       .  S
H2371      C2376   1.081       .  S
O2372     Mg2380   2.129       .  S
O2372      C2375   1.233       .  S
H2373      C2375   1.081       .  S
H2374      C2377   1.081       .  S
O2379     Mg2386   2.311       .  S
C2382      O2387   1.271   1_556  A
C2382      C2881   1.487       .  S
O2383      C2384   1.270       .  A
C2384      C2958   1.481       .  S
O2389     Mg2391   2.162   1_556  S
O2389      C2424   1.234       .  S
C2390      O2403   1.234       .  S
C2390      O2427   1.269       .  A
C2390      H2429   1.081       .  S
Mg2391     O2402   2.296       .  S
O2392     Mg2417   2.173       .  S
O2392      C2413   1.236       .  S
O2393      C2424   1.269       .  A
O2393     Mg2417   2.302       .  S
C2394      O2396   1.276       .  A
C2394      O2408   1.276       .  A
C2394      C2951   1.499       .  S
O2395      C2423   1.271   1_556  A
O2395     Mg2397   2.304       .  S
O2396     Mg2428   2.300       .  S
Mg2397     O2403   2.159       .  S
Mg2397     O2411   2.282       .  S
C2398      O2436   1.272       .  A
C2398      O2404   1.275   1_554  A
C2398      C2838   1.498       .  S
O2399      C2406   1.276       .  A
H2400      C2413   1.081       .  S
C2401      O2415   1.235       .  S
C2401      O2416   1.270       .  A
C2401      H2426   1.081   1_554  S
O2402      C2425   1.269       .  A
C2405      O2418   1.273       .  A
C2405      O2410   1.279       .  A
C2405      C2848   1.492       .  S
C2406      O2433   1.278       .  A
C2406      C2858   1.500       .  S
Mg2407     O2414   2.153       .  S
Mg2407     O2409   2.307       .  S
Mg2407     O2436   2.275       .  S
O2409      C2413   1.271   1_554  A
O2410     Mg2417   2.327       .  S
O2411      C2430   1.273       .  A
O2412      C2432   1.279       .  A
O2412     Mg2428   2.327       .  S
O2414      C2425   1.235       .  S
O2415     Mg2434   2.166   1_554  S
O2416     Mg2428   2.306       .  S
Mg2417     O2433   2.307       .  S
H2419      C2424   1.081   1_554  S
O2420     Mg2428   2.162       .  S
O2420      C2423   1.236       .  S
H2421      C2423   1.081       .  S
H2422      C2425   1.081       .  S
O2427     Mg2434   2.298       .  S
C2430      O2435   1.273   1_556  A
C2430      C2828   1.495       .  S
O2431      C2432   1.273       .  A
C2432      C3068   1.493       .  S
O2437     Mg2439   2.149       .  S
O2437     Mg2445   2.169       .  S
O2437      C2472   1.235       .  S
C2438      O2451   1.236       .  S
C2438      O2475   1.272       .  A
C2438      H2477   1.081       .  S
Mg2439     O2468   2.151       .  S
Mg2439     O2483   2.288   1_545  S
Mg2439     O2479   2.285       .  S
Mg2439     O2450   2.299       .  S
O2440     Mg2482   2.142       .  S
O2440     Mg2465   2.150       .  S
O2440      C2461   1.233       .  S
O2441      C2472   1.269       .  A
O2441     Mg2465   2.295       .  S
C2442      O2444   1.268       .  A
C2442      O2456   1.272       .  A
C2442      C2818   1.470       .  S
O2443      C2471   1.267       .  A
O2443     Mg2445   2.295       .  S
O2444     Mg2476   2.235       .  S
Mg2445     O2451   2.156       .  S
Mg2445     O3521   2.273   1_545  S
Mg2445     O2447   2.316       .  S
C2446      O2484   1.273       .  A
C2446      O2452   1.275       .  A
C2446      C2768   1.496       .  S
O2447      C2454   1.276       .  A
H2448      C2461   1.082       .  S
C2449      O2463   1.235       .  S
C2449      O2464   1.270       .  A
C2449      H2474   1.081       .  S
O2450      C2473   1.270       .  A
O2451     Mg2465   2.155       .  S
O2452     Mg2482   2.304       .  S
C2453      O2466   1.269       .  A
C2453      O2458   1.270       .  A
C2453      C2801   1.484       .  S
C2454      O2481   1.269       .  A
C2454      C3850   1.488   1_545  S
Mg2455     O2462   2.153       .  S
Mg2455     O2463   2.158       .  S
Mg2455     O2456   2.274       .  S
Mg2455     O2457   2.299       .  S
Mg2455     O2484   2.278       .  S
O2457      C2461   1.268       .  A
O2458     Mg2465   2.280       .  S
O2459      C2478   1.274       .  A
O2459     Mg3507   2.273       .  S
O2460      C2480   1.272       .  A
O2460     Mg2476   2.288       .  S
O2462     Mg2476   2.159       .  S
O2462      C2473   1.235       .  S
O2463     Mg2482   2.133       .  S
O2464     Mg2476   2.299       .  S
Mg2465     O2481   2.246       .  S
O2466     Mg2482   2.256       .  S
H2467      C2472   1.081   1_565  S
O2468     Mg2476   2.133       .  S
O2468      C2471   1.233       .  S
H2469      C2471   1.081       .  S
H2470      C2473   1.081       .  S
O2475     Mg2482   2.315       .  S
C2478      O3545   1.274       .  A
C2478      C2781   1.484       .  S
O2479      C2480   1.273       .  A
C2480      C2811   1.494       .  S
O2483      C3540   1.274       .  A
C2485      C2861   1.487       .  S
C2485      C2486   1.411       .  A
C2485      C2490   1.409       .  A
C2486      C2901   1.469       .  S
C2486      C2487   1.395       .  A
C2487      H2492   1.085       .  S
C2487      C2488   1.394       .  A
C2488      C2798   1.473       .  S
C2488      C2489   1.410       .  A
C2489      C2758   1.481       .  S
C2489      C2490   1.410       .  A
C2490      H2491   1.084       .  S
C2493      C2851   1.494       .  S
C2493      C2494   1.425       .  A
C2493      C2498   1.409       .  A
C2494      C2928   1.489       .  S
C2494      C2495   1.409       .  A
C2495      H2500   1.084       .  S
C2495      C2496   1.399       .  A
C2496      C2791   1.485       .  S
C2496      C2497   1.408       .  A
C2497      C2751   1.480       .  S
C2497      C2498   1.403       .  A
C2498      H2499   1.084       .  S
O2501     Mg2503   2.150       .  S
O2501     Mg2509   2.151       .  S
O2501      C2536   1.233       .  S
C2502      O2515   1.236       .  S
C2502      O2539   1.271       .  A
C2502      H2541   1.081       .  S
Mg2503     O2532   2.166       .  S
Mg2503     O2547   2.298       .  S
Mg2503     O2543   2.269       .  S
Mg2503     O2514   2.290       .  S
O2504     Mg2546   2.161       .  S
O2504     Mg2529   2.158       .  S
O2504      C2525   1.235       .  S
O2505      C2536   1.267       .  A
O2505     Mg2529   2.297       .  S
C2506      O2508   1.273       .  A
C2506      O2520   1.274       .  A
C2506      C2731   1.492       .  S
O2507      C2535   1.270       .  A
O2507     Mg2509   2.307       .  S
O2508     Mg2540   2.275       .  S
Mg2509     O2515   2.165       .  S
Mg2509     O2511   2.306       .  S
C2510      O2548   1.271       .  A
C2510      O2516   1.276       .  A
C2510      C2698   1.495       .  S
O2511      C2518   1.275       .  A
H2512      C2525   1.081       .  S
C2513      O2527   1.234       .  S
C2513      O2528   1.269       .  A
C2513      H2538   1.081       .  S
O2514      C2537   1.268       .  A
O2515     Mg2529   2.175       .  S
O2516     Mg3608   2.312       .  S
C2517      O2530   1.271       .  A
C2517      O2522   1.275       .  A
C2517      C2721   1.483   1_545  S
C2518      O2545   1.273       .  A
Mg2519     O2526   2.138       .  S
Mg2519     O2527   2.157       .  S
Mg2519     O2520   2.292       .  S
Mg2519     O2521   2.300       .  S
Mg2519     O3610   2.262   1_545  S
O2521      C2525   1.269       .  A
O2522     Mg2529   2.301       .  S
O2523      C2542   1.273       .  A
O2524      C2544   1.272       .  A
O2524     Mg2540   2.279       .  S
O2526     Mg2540   2.157       .  S
O2526      C2537   1.235       .  S
O2527     Mg2546   2.142       .  S
O2528     Mg2540   2.298       .  S
Mg2529     O2545   2.271       .  S
O2530     Mg2546   2.258       .  S
H2531      C2536   1.081       .  S
O2532     Mg2540   2.155       .  S
O2532      C2535   1.235       .  S
H2533      C2535   1.081       .  S
H2534      C2537   1.081       .  S
O2539     Mg2546   2.307       .  S
C2542      C2711   1.491       .  S
O2543      C2544   1.272       .  A
C2544      C2738   1.478       .  S
Mg2546     O3578   2.311   1_545  S
O2548     Mg3581   2.263       .  S
O2549     Mg2551   2.148       .  S
O2549     Mg2557   2.157       .  S
O2549      C2584   1.235       .  S
C2550      O2563   1.235       .  S
C2550      O2587   1.270       .  A
C2550      H2589   1.081       .  S
Mg2551     O2580   2.157       .  S
Mg2551     O2595   2.284       .  S
Mg2551     O2591   2.263       .  S
Mg2551     O2562   2.302       .  S
O2552     Mg2594   2.149       .  S
O2552     Mg2577   2.147       .  S
O2552      C2573   1.235       .  S
O2553      C2584   1.270       .  A
O2553     Mg2577   2.304       .  S
C2554      O2556   1.271       .  A
C2554      O2568   1.275       .  A
O2555      C2583   1.269       .  A
O2555     Mg2557   2.302       .  S
O2556     Mg2588   2.257       .  S
Mg2557     O2563   2.157       .  S
Mg2557     O2571   2.277       .  S
Mg2557     O2559   2.284       .  S
C2558      O2596   1.272       .  A
C2558      C2648   1.492       .  S
O2559      C2566   1.272       .  A
H2560      C2573   1.081       .  S
C2561      O2575   1.235       .  S
C2561      O2576   1.270       .  A
C2561      H2586   1.081   1_655  S
O2562      C2585   1.269       .  A
O2563     Mg2577   2.156       .  S
O2564     Mg2594   2.286   1_455  S
C2565      O2578   1.273       .  A
C2565      O2570   1.273       .  A
C2565      C2688   1.493       .  S
C2566      O2593   1.269       .  A
C2566      C2678   1.485       .  S
Mg2567     O2574   2.160       .  S
Mg2567     O2575   2.153       .  S
Mg2567     O2568   2.302       .  S
Mg2567     O2569   2.307       .  S
O2569      C2573   1.271       .  A
O2570     Mg2577   2.295       .  S
O2571      C2590   1.271       .  A
O2572      C2592   1.275       .  A
O2572     Mg2588   2.309       .  S
O2574     Mg2588   2.159       .  S
O2574      C2585   1.234       .  S
O2575     Mg2594   2.161       .  S
O2576     Mg2588   2.306       .  S
Mg2577     O2593   2.257       .  S
O2578     Mg2594   2.293       .  S
H2579      C2584   1.081       .  S
O2580     Mg2588   2.148       .  S
O2580      C2583   1.234       .  S
H2581      C2583   1.081       .  S
H2582      C2585   1.081       .  S
O2587     Mg2594   2.305       .  S
C2590      O2595   1.272       .  A
C2590      C2658   1.489       .  S
O2591      C2592   1.270       .  A
C2592      C2671   1.489       .  S
C2597      C2938   1.479       .  S
C2597      C2598   1.408       .  A
C2597      C2602   1.399       .  A
C2598      C2891   1.477       .  S
C2598      C2599   1.396       .  A
C2599      H2604   1.085       .  S
C2599      C2600   1.404       .  A
C2600      C2668   1.487       .  S
C2600      C2601   1.423       .  A
C2601      C2718   1.484       .  S
C2601      C2602   1.407       .  A
C2602      H2603   1.084       .  S
C2605      C3041   1.477       .  S
C2605      C2606   1.412       .  A
C2605      C2610   1.403       .  A
C2606      C3151   1.480       .  S
C2606      C2607   1.399       .  A
C2607      H2612   1.085       .  S
C2608      C2741   1.478       .  S
C2608      C2609   1.417       .  A
C2609      C2691   1.490       .  S
C2610      H2611   1.085       .  S
C2613      C3001   1.469       .  S
C2613      C2614   1.410       .  A
C2613      C2618   1.400       .  A
C2614      C3161   1.478       .  S
C2614      C2615   1.397       .  A
C2615      H2620   1.084       .  S
C2615      C2616   1.401       .  A
C2616      C2821   1.472       .  S
C2616      C2617   1.413       .  A
C2617      C2681   1.480       .  S
C2617      C2618   1.399       .  A
C2618      H2619   1.084       .  S
C2621      C3048   1.490       .  S
C2621      C2622   1.418       .  A
C2621      C2626   1.408       .  A
C2622      C2991   1.485       .  S
C2622      C2623   1.404       .  A
C2623      H2628   1.084       .  S
C2623      C3686   1.405       .  A
C2624      C2728   1.485       .  S
C2624      C3685   1.405       .  A
C2624      C2625   1.414       .  A
C2625      C2808   1.484       .  S
C2625      C3688   1.403   1_545  A
C2626      H2627   1.084       .  S
C2626      C3687   1.403       .  A
C2629      C2630   1.412   1_556  A
C2630      C2871   1.480       .  S
C2630      C3693   1.416       .  A
C2631      C2918   1.482       .  S
C2631      C3692   1.416       .  A
C2631      C2632   1.412       .  A
C2632      C2841   1.492       .  S
C2633      C2878   1.476       .  S
C2633      C2634   1.413       .  A
C2634      C3973   1.483       .  S
C2635      C2981   1.486       .  S
C2635      C2636   1.414       .  A
C2635      C2640   1.416       .  A
C2636      C3031   1.487       .  S
C2636      C2637   1.414       .  A
C2637      C3141   1.489       .  S
C2637      C2638   1.415       .  A
C2638      C2971   1.483       .  S
C2638      C2639   1.413       .  A
C2639      C3021   1.494       .  S
C2639      C2640   1.415       .  A
C2640      C3128   1.484       .  S
C2641      C2651   1.487       .  S
C2641      C2642   1.413       .  A
C2641      C2646   1.414       .  A
C2642      C2778   1.483       .  S
C2642      C2643   1.413       .  A
C2643      C2701   1.491       .  S
C2643      C2644   1.415       .  A
C2644      C2661   1.485       .  S
C2644      C2645   1.419       .  A
C2645      C2771   1.489       .  S
C2645      C2646   1.416       .  A
C2646      C2708   1.492       .  S
C2647      C2648   1.414       .  A
C2647      C2652   1.394       .  A
C2647      F2654   1.358       .  S
C2648      C2649   1.414       .  A
C2649      C2650   1.403       .  A
C2649      F2656   1.358       .  S
C2650      C2651   1.403       .  A
C2650      F2655   1.357       .  S
C2651      C2652   1.400       .  A
C2652      F2653   1.358       .  S
C2657      C2658   1.414       .  A
C2657      C2662   1.395       .  A
C2657      F2664   1.358       .  S
C2658      C2659   1.411       .  A
C2659      C2660   1.403       .  A
C2659      F2666   1.358       .  S
C2660      C2661   1.405       .  A
C2660      F2665   1.357       .  S
C2661      C2662   1.399       .  A
C2662      F2663   1.358       .  S
C2667      C2668   1.407       .  A
C2667      C2672   1.399       .  A
C2667      F2674   1.358       .  S
C2668      C2669   1.404       .  A
C2669      C2670   1.403       .  A
C2669      F2676   1.358       .  S
C2670      C2671   1.414       .  A
C2670      F2675   1.358       .  S
C2671      C2672   1.408       .  A
C2672      F2673   1.358       .  S
C2677      C2678   1.413       .  A
C2677      C2682   1.400       .  A
C2677      F2684   1.358       .  S
C2678      C2679   1.411       .  A
C2679      C2680   1.395       .  A
C2679      F2686   1.358       .  S
C2680      C2681   1.403       .  A
C2680      F2685   1.358       .  S
C2681      C2682   1.402       .  A
C2682      F2683   1.358       .  S
C2687      C2688   1.412       .  A
C2687      C2692   1.404   1_655  A
C2688      C2689   1.412       .  A
C2689      C2690   1.400       .  A
C2689      F2696   1.358       .  S
C2690      C2691   1.404       .  A
C2690      F2695   1.358       .  S
C2691      C2692   1.407   1_655  A
C2697      C2698   1.413       .  A
C2697      C2702   1.399       .  A
C2697      F2704   1.358       .  S
C2698      C2699   1.415       .  A
C2699      C2700   1.401       .  A
C2699      F2706   1.358       .  S
C2700      C2701   1.402       .  A
C2700      F2705   1.358       .  S
C2701      C2702   1.402       .  A
C2702      F2703   1.357       .  S
C2707      C2708   1.401       .  A
C2707      C2712   1.399       .  A
C2707      F2714   1.358       .  S
C2708      C2709   1.405       .  A
C2709      C2710   1.401       .  A
C2709      F2716   1.357       .  S
C2710      C2711   1.411       .  A
C2710      F2715   1.358       .  S
C2711      C2712   1.415       .  A
C2712      F2713   1.358       .  S
C2717      C2718   1.407       .  A
C2717      C2722   1.400       .  A
C2717      F2724   1.358       .  S
C2718      C2719   1.404       .  A
C2719      C2720   1.400       .  A
C2719      F2726   1.358       .  S
C2720      C3783   1.411       .  A
C2720      F3787   1.358       .  S
C2721      C3782   1.411       .  A
C2721      C3784   1.407       .  A
C2722      C3783   1.407       .  A
C2722      F2723   1.358       .  S
F2725      C3782   1.358   1_545  S
C2727      C2728   1.403       .  A
C2727      C2732   1.398       .  A
C2727      F2734   1.357   1_545  S
C2728      C2729   1.403       .  A
C2729      C2730   1.401       .  A
C2729      F2736   1.358       .  S
C2730      C2731   1.413       .  A
C2730      F2735   1.358       .  S
C2731      C2732   1.413       .  A
C2732      F2733   1.358       .  S
C2737      C2738   1.406       .  A
C2738      C2739   1.411       .  A
C2739      C2740   1.396       .  A
C2739      F2746   1.358       .  S
C2740      C2741   1.402       .  A
C2740      F2745   1.358       .  S
C2742      F2743   1.358       .  S
C2747      C2748   1.413       .  A
C2747      C2752   1.396       .  A
C2747      F2754   1.358       .  S
C2749      F2756   1.358       .  S
C2750      C2751   1.401       .  A
C2751      C2752   1.402       .  A
C2752      F2753   1.358       .  S
C2757      C2758   1.401       .  A
C2757      C2762   1.402       .  A
C2757      F2764   1.358       .  S
C2758      C2759   1.402       .  A
C2760      F2765   1.358   1_455  S
C2761      C2762   1.416       .  A
C2762      F2763   1.358       .  S
C2767      C2768   1.414       .  A
C2767      C2772   1.402       .  A
C2767      F2774   1.358       .  S
C2768      C2769   1.414       .  A
C2769      C2770   1.398       .  A
C2769      F2776   1.358       .  S
C2770      C2771   1.402       .  A
C2770      F2775   1.357       .  S
C2771      C2772   1.404       .  A
C2772      F2773   1.357       .  S
C2777      C2778   1.399       .  A
C2777      C2782   1.395       .  A
C2777      F2784   1.357       .  S
C2778      C2779   1.405       .  A
C2779      C2780   1.400       .  A
C2779      F2786   1.357       .  S
C2780      C2781   1.409       .  A
C2780      F2785   1.358       .  S
C2781      C2782   1.413       .  A
C2782      F2783   1.358       .  S
C2787      C2788   1.411       .  A
C2787      C2792   1.399       .  A
C2787      F2794   1.358       .  S
C2788      C3516   1.488       .  S
C2788      C2789   1.412       .  A
C2789      C2790   1.400       .  A
C2789      F2796   1.358       .  S
C2790      C2791   1.403       .  A
C2790      F2795   1.358       .  S
C2791      C2792   1.404       .  A
C2792      F2793   1.358       .  S
C2797      C2798   1.402       .  A
C2797      C2802   1.398       .  A
C2797      F2804   1.357       .  S
C2798      C2799   1.399       .  A
C2799      C2800   1.396       .  A
C2799      F2806   1.358       .  S
C2800      C2801   1.414       .  A
C2800      F2805   1.358       .  S
C2801      C2802   1.411       .  A
C2802      F2803   1.358       .  S
C2807      C2808   1.401       .  A
C2807      C2812   1.397       .  A
C2807      F2814   1.358       .  S
C2808      C3871   1.404   1_545  A
C2809      C3870   1.404       .  A
C2809      C3872   1.404       .  A
C2809      F2816   1.358       .  S
C2810      C3871   1.404       .  A
C2810      C2811   1.412   1_565  A
C2810      F3877   1.357       .  S
C2811      C2812   1.416       .  A
C2812      F2813   1.358       .  S
F2815      C3872   1.357       .  S
C2817      C2818   1.407       .  A
C2817      C2822   1.396       .  A
C2817      F2824   1.358       .  S
C2818      C2819   1.409       .  A
C2819      C2820   1.391       .  A
C2819      F2826   1.358       .  S
C2820      C2821   1.399       .  A
C2820      F2825   1.358       .  S
C2821      C2822   1.405       .  A
C2822      F2823   1.358       .  S
C2827      C2828   1.413       .  A
C2827      C2832   1.402       .  A
C2827      F2834   1.357       .  S
C2829      C2830   1.399       .  A
C2829      F2836   1.358       .  S
C2830      F2835   1.358       .  S
C2831      C2832   1.403       .  A
C2832      F2833   1.357       .  S
C2837      C2842   1.402       .  A
C2837      F2844   1.358       .  S
C2838      C2839   1.415   1_554  A
C2839      C2840   1.401       .  A
C2839      F2846   1.358       .  S
C2840      C2841   1.402   1_556  A
C2840      F2845   1.357       .  S
C2842      F2843   1.357   1_455  S
C2847      C2848   1.409       .  A
C2847      C2852   1.404       .  A
C2848      C2849   1.412       .  A
C2849      C2850   1.404       .  A
C2849      F2856   1.358       .  S
C2850      C2851   1.406       .  A
C2850      F2855   1.357       .  S
C2851      C2852   1.408       .  A
C2852      F2853   1.358       .  S
C2857      C2858   1.412       .  A
C2857      C2862   1.405       .  A
C2857      F2864   1.357       .  S
C2858      C2859   1.417       .  A
C2859      C2860   1.402       .  A
C2859      F2866   1.358       .  S
C2860      C2861   1.401       .  A
C2860      F2865   1.358       .  S
C2861      C2862   1.405       .  A
C2862      F2863   1.358       .  S
C2867      C2868   1.413       .  A
C2867      C2872   1.398       .  A
C2867      F2874   1.358       .  S
C2868      C2869   1.414   1_554  A
C2869      C2870   1.397       .  A
C2869      F2876   1.358       .  S
C2870      C2871   1.401   1_556  A
C2870      F2875   1.358       .  S
C2871      C2872   1.400       .  A
C2872      F2873   1.357       .  S
C2877      C2878   1.401       .  A
C2877      C2882   1.399       .  A
C2877      F2884   1.357       .  S
C2878      C2879   1.397   1_556  A
C2879      C2880   1.394       .  A
C2879      F2886   1.358       .  S
C2880      C2881   1.416   1_554  A
C2880      F2885   1.358       .  S
C2881      C2882   1.411       .  A
C2882      F2883   1.357       .  S
C2887      C2888   1.411       .  A
C2887      C2892   1.397       .  A
C2887      F2894   1.358       .  S
C2888      C2889   1.408       .  A
C2889      C2890   1.396       .  A
C2889      F2896   1.358       .  S
C2890      C2891   1.403       .  A
C2890      F2895   1.357       .  S
C2891      C2892   1.402       .  A
C2892      F2893   1.358       .  S
C2897      C2898   1.413       .  A
C2897      C2902   1.394       .  A
C2897      F2904   1.358       .  S
C2898      C2899   1.414       .  A
C2899      C2900   1.397       .  A
C2899      F2906   1.358       .  S
C2900      C2901   1.400       .  A
C2900      F2905   1.358       .  S
C2901      C2902   1.399       .  A
C2902      F2903   1.358       .  S
C2907      C3970   1.415   1_554  A
C2907      C2912   1.394       .  A
C2907      F2914   1.357       .  S
C2908      C3969   1.415   1_556  A
C2908      C2909   1.412       .  A
C2909      C2910   1.401       .  A
C2909      F2916   1.357       .  S
C2910      C2911   1.403       .  A
C2910      F2915   1.357       .  S
C2911      C3696   1.483       .  S
C2911      C3974   1.399   1_556  A
C2912      C3973   1.399   1_554  A
C2912      F2913   1.358       .  S
C2917      C3980   1.398   1_556  A
C2917      C3984   1.395       .  A
C2917      F2924   1.358       .  S
C2918      C3979   1.398   1_554  A
C2918      C2919   1.404       .  A
C2919      C2920   1.402       .  A
C2919      F2926   1.357       .  S
C2920      C2921   1.411       .  A
C2920      F2925   1.357       .  S
C2921      C2922   1.415   1_554  A
C2922      C3979   1.395       .  A
C2922      F3985   1.358       .  S
F2923      C3984   1.358       .  S
C2927      C2928   1.405       .  A
C2927      C2932   1.401       .  A
C2927      F2934   1.357       .  S
C2928      C2929   1.408       .  A
C2929      C2930   1.400       .  A
C2929      F2936   1.358       .  S
C2930      C2931   1.408       .  A
C2930      F2935   1.358       .  S
C2931      C2932   1.411       .  A
C2932      F2933   1.358       .  S
C2937      C2938   1.400       .  A
C2937      C2942   1.398       .  A
C2937      F2944   1.358       .  S
C2938      C2939   1.402       .  A
C2939      C2940   1.396       .  A
C2939      F2946   1.358       .  S
C2940      C2941   1.412       .  A
C2940      F2945   1.358       .  S
C2941      C2942   1.415       .  A
C2942      F2943   1.358       .  S
C2947      C2948   1.405       .  A
C2947      C2952   1.402       .  A
C2947      F2954   1.357       .  S
C2948      C2949   1.405       .  A
C2949      C2950   1.405       .  A
C2949      F2956   1.358       .  S
C2950      C2951   1.413       .  A
C2950      F2955   1.357       .  S
C2951      C2952   1.415       .  A
C2952      F2953   1.358       .  S
C2957      C2958   1.410       .  A
C2957      C2962   1.397       .  A
C2957      F2964   1.358       .  S
C2958      C2959   1.415       .  A
C2959      C2960   1.393       .  A
C2959      F2966   1.358       .  S
C2960      C2961   1.397       .  A
C2960      F2965   1.358       .  S
C2961      C2962   1.402       .  A
C2962      F2963   1.358       .  S
C2967      C2968   1.412       .  A
C2967      C2972   1.397       .  A
C2967      F2974   1.358       .  S
C2968      C2969   1.413       .  A
C2969      C2970   1.396       .  A
C2969      F2976   1.358       .  S
C2970      C2971   1.401       .  A
C2970      F2975   1.358       .  S
C2971      C2972   1.402       .  A
C2972      F2973   1.358       .  S
C2977      C2978   1.411       .  A
C2977      C2982   1.403       .  A
C2977      F2984   1.358       .  S
C2978      C2979   1.414       .  A
C2979      C2980   1.397       .  A
C2979      F2986   1.358       .  S
C2980      C2981   1.399       .  A
C2980      F2985   1.358       .  S
C2981      C2982   1.405       .  A
C2982      F2983   1.357       .  S
C2987      C2988   1.410       .  A
C2987      C4054   1.404       .  A
C2987      F4056   1.357       .  S
C2988      C2989   1.414       .  A
C2989      C2990   1.397       .  A
C2989      F2996   1.358       .  S
C2990      C2991   1.402       .  A
C2990      F2995   1.358       .  S
C2991      C4054   1.406       .  A
C2992      C4049   1.404       .  A
C2992      C4053   1.406   1_545  A
C2992      F2993   1.358       .  S
F2994      C4049   1.357       .  S
C2997      C2998   1.412       .  A
C2997      C3002   1.392       .  A
C2997      F3004   1.358       .  S
C2998      C2999   1.414       .  A
C2999      C3000   1.397       .  A
C2999      F3006   1.358       .  S
C3000      C3001   1.399       .  A
C3000      F3005   1.358       .  S
C3001      C3002   1.399       .  A
C3002      F3003   1.358       .  S
C3007      C3008   1.411       .  A
C3007      C3012   1.398       .  A
C3007      F3014   1.358       .  S
C3008      C3009   1.414       .  A
C3009      C3010   1.397       .  A
C3009      F3016   1.358       .  S
C3010      C3011   1.401       .  A
C3010      F3015   1.358       .  S
C3011      C3012   1.403       .  A
C3012      F3013   1.357       .  S
C3017      C3018   1.413       .  A
C3017      C3022   1.397       .  A
C3017      F3024   1.358       .  S
C3018      C3019   1.411       .  A
C3019      C3020   1.402       .  A
C3019      F3026   1.358       .  S
C3020      C3021   1.405       .  A
C3020      F3025   1.357       .  S
C3021      C3022   1.403       .  A
C3022      F3023   1.358       .  S
C3027      C3028   1.412       .  A
C3027      C3032   1.400       .  A
C3027      F3034   1.357       .  S
C3028      C3029   1.416       .  A
C3029      C3030   1.398       .  A
C3029      F3036   1.358       .  S
C3030      C3031   1.400       .  A
C3030      F3035   1.358       .  S
C3031      C3032   1.402       .  A
C3032      F3033   1.357       .  S
C3037      C3038   1.411       .  A
C3038      C3039   1.414       .  A
C3039      C3040   1.398       .  A
C3039      F3046   1.358       .  S
C3040      C3041   1.401       .  A
C3040      F3045   1.358       .  S
C3042      F3043   1.358       .  S
C3047      C3048   1.404       .  A
C3047      C3052   1.401       .  A
C3047      F3054   1.358       .  S
C3048      C3049   1.406       .  A
C3049      C3050   1.401       .  A
C3049      F3056   1.357       .  S
C3050      C3051   1.411       .  A
C3050      F3055   1.358       .  S
C3051      C3052   1.413       .  A
C3052      F3053   1.358       .  S
C3057      C3058   1.415       .  A
C3057      C3062   1.401       .  A
C3058      C3059   1.410       .  A
C3059      C3060   1.403       .  A
C3059      F3066   1.358   1_655  S
C3060      C3061   1.406       .  A
C3060      F3065   1.358       .  S
C3061      C3062   1.401       .  A
C3062      F3063   1.358       .  S
C3067      C3068   1.412       .  A
C3067      C3072   1.401       .  A
C3067      F3074   1.358       .  S
C3068      C3069   1.411       .  A
C3069      C3070   1.404       .  A
C3070      C3071   1.407       .  A
C3070      F3075   1.358       .  S
C3071      C3072   1.404       .  A
C3072      F3073   1.358       .  S
C3077      C3078   1.412       .  A
C3077      C3082   1.401       .  A
C3077      F3084   1.357       .  S
C3078      C3079   1.410       .  A
C3079      C3080   1.401       .  A
C3079      F3086   1.358       .  S
C3080      C3081   1.407       .  A
C3080      F3085   1.358       .  S
C3081      C3082   1.404       .  A
C3082      F3083   1.358       .  S
C3087      C3088   1.400       .  A
C3087      C3092   1.397       .  A
C3087      F3094   1.358       .  S
C3088      C3089   1.403       .  A
C3089      C3090   1.400       .  A
C3089      F3096   1.358       .  S
C3090      C3091   1.413       .  A
C3090      F3095   1.358       .  S
C3091      C3304   1.490   1_545  S
C3091      C3092   1.414       .  A
C3092      F4155   1.358   1_545  S
F3093      C4154   1.358       .  S
C3097      C3098   1.413       .  A
C3097      C3102   1.396       .  A
C3097      F3104   1.358       .  S
C3098      C3099   1.413       .  A
C3099      C3100   1.399       .  A
C3099      F3106   1.358       .  S
C3100      C3101   1.401       .  A
C3100      F3105   1.358       .  S
C3101      C3102   1.401       .  A
C3102      F3103   1.357       .  S
C3107      C3108   1.412       .  A
C3107      C3112   1.400       .  A
C3107      F3114   1.358       .  S
C3108      C3109   1.412       .  A
C3109      C3110   1.393       .  A
C3109      F3116   1.358       .  S
C3110      C3111   1.399       .  A
C3110      F3115   1.358       .  S
C3111      C3112   1.402       .  A
C3112      F3113   1.358       .  S
C3117      C3118   1.404       .  A
C3117      C3122   1.400       .  A
C3117      F3124   1.358       .  S
C3118      C3119   1.403       .  A
C3119      C3120   1.402       .  A
C3119      F3126   1.358       .  S
C3120      C4183   1.412       .  A
C3120      F3125   1.358   1_545  S
C3121      C4182   1.412       .  A
C3121      C4184   1.412       .  A
C3122      C4183   1.412       .  A
C3122      F4185   1.358       .  S
F3123      C4184   1.358       .  S
C3127      C3128   1.401       .  A
C3127      C3132   1.391       .  A
C3127      F3134   1.357       .  S
C3128      C3129   1.403       .  A
C3129      C3130   1.401       .  A
C3129      F3136   1.357       .  S
C3130      C3131   1.414       .  A
C3130      F3135   1.358       .  S
C3131      C3132   1.411       .  A
C3132      F3133   1.357       .  S
C3137      C3138   1.409       .  A
C3137      C3142   1.402       .  A
C3137      F3144   1.358       .  S
C3138      C3139   1.414       .  A
C3139      C3140   1.396       .  A
C3139      F3146   1.358       .  S
C3140      C3141   1.399       .  A
C3140      F3145   1.358       .  S
C3141      C3142   1.407       .  A
C3142      F3143   1.357       .  S
C3147      C3148   1.414       .  A
C3147      C3152   1.397       .  A
C3147      F3154   1.358       .  S
C3148      C3149   1.415       .  A
C3149      C3150   1.403       .  A
C3150      C3151   1.403       .  A
C3151      C3152   1.400       .  A
C3152      F3153   1.358       .  S
C3157      C3158   1.407       .  A
C3157      C3162   1.401       .  A
C3157      F3164   1.357       .  S
C3158      C3159   1.412       .  A
C3159      C3160   1.395       .  A
C3159      F3166   1.358       .  S
C3160      C3161   1.399       .  A
C3160      F3165   1.358       .  S
C3161      C3162   1.406       .  A
C3162      F3163   1.357       .  S
C3167      C3168   1.399       .  A
C3167      C3172   1.394       .  A
C3167      F3174   1.358       .  S
C3168      C3169   1.401       .  A
C3170      F3175   1.358       .  S
C3171      C3172   1.413       .  A
C3172      F3173   1.358       .  S
C3177      C3178   1.412       .  A
C3177      C3182   1.402       .  A
C3177      F3184   1.358       .  S
C3178      C3179   1.412       .  A
C3179      C3180   1.399       .  A
C3179      F3186   1.357       .  S
C3180      C3181   1.402       .  A
C3180      F3185   1.358       .  S
C3181      C3182   1.406       .  A
C3182      F3183   1.358       .  S
O3187     Mg3189   2.151       .  S
O3187     Mg3195   2.156       .  S
O3187      C3222   1.235       .  S
C3188      O3201   1.233       .  S
C3188      O3225   1.268       .  A
C3188      H3227   1.081       .  S
Mg3189     O3218   2.161       .  S
Mg3189     O3233   2.283       .  S
Mg3189     O3229   2.268       .  S
Mg3189     O3200   2.302       .  S
O3190     Mg3232   2.160       .  S
O3190     Mg3215   2.144       .  S
O3190      C3211   1.236       .  S
O3191      C3222   1.270       .  A
O3191     Mg3215   2.304       .  S
C3192      O3194   1.271       .  A
C3192      O3206   1.270       .  A
C3192      C4220   1.480       .  S
O3193      C3221   1.270       .  A
O3193     Mg3195   2.305       .  S
O3194     Mg3226   2.277       .  S
Mg3195     O3201   2.153       .  S
Mg3195     O3197   2.295       .  S
C3196      O3234   1.269       .  A
C3196      O3202   1.272       .  A
C3196      C4193   1.486       .  S
O3197      C3204   1.274       .  A
H3198      C3211   1.081       .  S
C3199      O3213   1.235       .  S
C3199      O3214   1.271       .  A
C3199      H3224   1.081       .  S
O3200      C3223   1.269       .  A
O3201     Mg3215   2.158       .  S
O3202     Mg3232   2.278       .  S
C3203      O3216   1.271       .  A
C3203      O3208   1.274       .  A
C3203      C4240   1.490       .  S
C3204      O3231   1.269       .  A
Mg3205     O3212   2.148       .  S
Mg3205     O3213   2.150       .  S
Mg3205     O3206   2.277       .  S
Mg3205     O3207   2.301       .  S
Mg3205     O3234   2.258       .  S
O3207      C3211   1.270       .  A
O3208     Mg3215   2.307       .  S
O3209      C3228   1.273       .  A
O3210      C3230   1.274       .  A
O3210     Mg3226   2.296       .  S
O3212     Mg3226   2.146       .  S
O3212      C3223   1.234       .  S
O3213     Mg3232   2.143       .  S
O3214     Mg3226   2.310       .  S
Mg3215     O3231   2.246       .  S
O3216     Mg3232   2.262       .  S
H3217      C3222   1.081       .  S
O3218     Mg3226   2.154       .  S
O3218      C3221   1.235       .  S
H3219      C3221   1.081       .  S
H3220      C3223   1.081       .  S
O3225     Mg3232   2.296       .  S
C3228      C4200   1.488       .  S
O3229      C3230   1.271       .  A
C3230      C4210   1.492       .  S
C3235      C4243   1.484       .  S
C3235      C3236   1.420       .  A
C3235      C3240   1.406       .  A
C3236      C4180   1.484       .  S
C3236      C3237   1.404       .  A
C3237      H3242   1.084       .  S
C3237      C3238   1.398       .  A
C3238      C4173   1.475       .  S
C3238      C3239   1.407       .  A
C3239      C4163   1.477       .  S
C3239      C3240   1.399       .  A
C3240      H3241   1.084       .  S
C3243      C4150   1.480       .  S
C3243      C3244   1.406       .  A
C3243      C3248   1.398       .  A
C3244      C4230   1.475       .  S
C3244      C3245   1.399       .  A
C3245      H3250   1.084       .  S
C3245      C3246   1.406       .  A
C3246      C4133   1.490       .  S
C3246      C3247   1.424       .  A
C3247      C4143   1.489       .  S
C3247      C3248   1.409       .  A
C3248      H3249   1.084       .  S
O3251     Mg3253   2.144       .  S
O3251     Mg3259   2.159       .  S
O3251      C3286   1.234       .  S
C3252      O3265   1.235       .  S
C3252      O3289   1.269       .  A
C3252      H3291   1.081       .  S
Mg3253     O3282   2.161       .  S
Mg3253     O3293   2.251       .  S
Mg3253     O3264   2.304       .  S
O3254     Mg3296   2.157       .  S
O3254     Mg3279   2.150       .  S
O3254      C3275   1.235       .  S
O3255      C3286   1.268       .  A
O3255     Mg3279   2.293       .  S
C3256      O3258   1.276       .  A
C3256      O3270   1.276       .  A
O3257      C3285   1.271       .  A
O3257     Mg3259   2.307       .  S
O3258     Mg3290   2.289       .  S
Mg3259     O3265   2.143       .  S
Mg3259     O3261   2.317       .  S
C3260      O3298   1.274       .  A
C3260      C4090   1.493       .  S
O3261      C3268   1.277       .  A
H3262      C3275   1.081       .  S
C3263      O3277   1.233       .  S
C3263      O3278   1.269       .  A
C3263      H3288   1.081       .  S
O3264      C3287   1.270       .  A
O3265     Mg3279   2.163       .  S
O3266     Mg3296   2.284       .  S
C3267      O3280   1.272       .  A
C3267      O3272   1.273       .  A
C3267      C4100   1.486       .  S
C3268      O3295   1.272       .  A
C3268      C4113   1.493       .  S
Mg3269     O3276   2.164       .  S
Mg3269     O3277   2.155       .  S
Mg3269     O3270   2.307       .  S
Mg3269     O3271   2.304       .  S
O3271      C3275   1.270       .  A
O3272     Mg3279   2.289       .  S
O3273      C3292   1.272       .  A
O3274      C3294   1.278       .  A
O3274     Mg3290   2.325       .  S
O3276     Mg3290   2.173       .  S
O3276      C3287   1.235       .  S
O3277     Mg3296   2.157       .  S
O3278     Mg3290   2.302       .  S
Mg3279     O3295   2.266       .  S
O3280     Mg3296   2.272       .  S
H3281      C3286   1.081       .  S
O3282     Mg3290   2.166       .  S
O3282      C3285   1.235       .  S
H3283      C3285   1.081       .  S
H3284      C3287   1.081       .  S
O3289     Mg3296   2.293       .  S
C3292      O3297   1.274       .  A
C3292      C4080   1.490       .  S
O3293      C3294   1.270       .  A
C3294      C4183   1.491   1_565  S
O3299     Mg3301   2.142       .  S
O3299     Mg3307   2.164       .  S
O3299      C3334   1.236       .  S
C3300      O3313   1.235       .  S
C3300      O3337   1.271       .  A
C3300      H3339   1.081       .  S
Mg3301     O3330   2.152       .  S
Mg3301     O3345   2.291       .  S
Mg3301     O3341   2.266       .  S
Mg3301     O3312   2.300       .  S
O3302     Mg3344   2.147       .  S
O3302     Mg3327   2.140       .  S
O3302      C3323   1.233       .  S
O3303      C3334   1.270       .  A
O3303     Mg3327   2.301       .  S
C3304      O3306   1.267       .  A
C3304      O3318   1.275       .  A
O3305      C3333   1.266       .  A
O3305     Mg3307   2.290       .  S
O3306     Mg3338   2.233       .  S
Mg3307     O3313   2.162       .  S
Mg3307     O3321   2.282       .  S
Mg3307     O3309   2.273       .  S
C3308      O3346   1.271       .  A
C3308      C4030   1.487       .  S
O3309      C3316   1.271       .  A
H3310      C3323   1.082       .  S
C3311      O3325   1.236       .  S
C3311      O3326   1.270       .  A
C3311      H3336   1.081   1_565  S
O3312      C3335   1.269       .  A
O3313     Mg3327   2.153       .  S
O3314     Mg3344   2.306   1_545  S
C3315      O3328   1.274       .  A
C3315      O3320   1.273       .  A
C3315      C4050   1.489       .  S
C3316      O3343   1.269       .  A
C3316      C4060   1.482       .  S
Mg3317     O3324   2.142       .  S
Mg3317     O3325   2.173       .  S
Mg3317     O3318   2.312       .  S
Mg3317     O3319   2.296       .  S
O3319      C3323   1.267       .  A
O3320     Mg3327   2.295       .  S
O3321      C3340   1.273       .  A
O3322      C3342   1.271       .  A
O3322     Mg3338   2.276       .  S
O3324     Mg3338   2.148       .  S
O3324      C3335   1.234       .  S
O3325     Mg3344   2.155       .  S
O3326     Mg3338   2.297       .  S
Mg3327     O3343   2.249       .  S
O3328     Mg3344   2.286       .  S
H3329      C3334   1.081       .  S
O3330     Mg3338   2.130       .  S
O3330      C3333   1.233       .  S
H3331      C3333   1.081       .  S
H3332      C3335   1.081       .  S
O3337     Mg3344   2.312       .  S
C3340      O3345   1.274       .  A
C3340      C4040   1.490       .  S
O3341      C3342   1.272       .  A
C3342      C4070   1.485       .  S
C3347      C4073   1.478       .  S
C3347      C3348   1.413       .  A
C3347      C3352   1.395       .  A
C3348      C4123   1.485       .  S
C3348      C3349   1.411       .  A
C3349      H3354   1.084       .  S
C3349      C3350   1.411       .  A
C3350      C4010   1.493       .  S
C3350      C3351   1.414       .  A
C3351      C4023   1.469       .  S
C3351      C3352   1.395       .  A
C3352      H3353   1.085       .  S
O3355     Mg3357   2.146   1_554  S
O3355      C3390   1.234       .  S
C3356      O3369   1.234   1_565  S
C3356      O3393   1.269       .  A
C3356      H3395   1.081       .  S
Mg3357     O3368   2.301       .  S
O3358     Mg3383   2.148       .  S
O3358      C3379   1.235       .  S
O3359      C3390   1.269       .  A
O3359     Mg3383   2.303       .  S
C3360      O3362   1.268       .  A
C3360      O3374   1.273       .  A
C3360      C4003   1.487       .  S
O3361      C3389   1.269   1_554  A
O3361     Mg3363   2.302   1_565  S
O3362     Mg3394   2.244       .  S
Mg3363     O3369   2.157       .  S
Mg3363     O3377   2.283       .  S
C3364      O3402   1.272       .  A
C3364      O3370   1.271   1_556  A
C3364      C3970   1.490       .  S
O3365      C3372   1.274       .  A
H3366      C3379   1.082       .  S
C3367      O3381   1.235       .  S
C3367      O3382   1.271       .  A
C3367      H3392   1.081   1_556  S
O3368      C3391   1.269       .  A
C3371      O3384   1.271       .  A
C3371      O3376   1.273       .  A
C3371      C4140   1.490       .  S
C3372      O3399   1.269       .  A
C3372      C4170   1.483       .  S
Mg3373     O3380   2.156       .  S
Mg3373     O3375   2.306       .  S
Mg3373     O3402   2.278       .  S
O3375      C3379   1.271   1_556  A
O3376     Mg3383   2.304       .  S
O3377      C3396   1.273       .  A
O3378      C3398   1.274       .  A
O3378     Mg3394   2.306       .  S
O3380      C3391   1.234       .  S
O3381     Mg3400   2.150   1_556  S
O3382     Mg3394   2.310       .  S
Mg3383     O3399   2.247       .  S
H3385      C3390   1.081   1_556  S
O3386     Mg3394   2.146       .  S
O3386      C3389   1.234       .  S
H3387      C3389   1.081       .  S
H3388      C3391   1.081       .  S
O3393     Mg3400   2.301       .  S
C3396      O3401   1.271   1_544  A
C3396      C3983   1.489       .  S
O3397      C3398   1.270       .  A
C3398      C3993   1.486       .  S
O3403     Mg3405   2.136   1_556  S
O3403     Mg3411   2.168       .  S
O3403      C3438   1.234       .  S
C3404      O3417   1.236       .  S
C3404      O3441   1.272       .  A
C3404      H3443   1.081       .  S
Mg3405     O3434   2.148       .  S
Mg3405     O3449   2.268       .  S
Mg3405     O3445   2.260       .  S
Mg3405     O3416   2.296       .  S
O3406     Mg3448   2.145       .  S
O3406     Mg3431   2.145       .  S
O3406      C3427   1.233       .  S
O3407      C3438   1.268       .  A
O3407     Mg3431   2.292       .  S
C3408      O3410   1.268       .  A
C3408      O3422   1.274       .  A
C3408      C4160   1.487       .  S
O3409      C3437   1.267   1_556  A
O3409     Mg3411   2.292       .  S
O3410     Mg3442   2.235       .  S
Mg3411     O3417   2.153       .  S
Mg3411     O3425   2.279       .  S
Mg3411     O3413   2.295       .  S
C3412      O3450   1.271       .  A
C3412      O3418   1.274   1_554  A
C3412      C3930   1.488       .  S
O3413      C3420   1.274       .  A
H3414      C3427   1.081       .  S
C3415      O3429   1.235       .  S
C3415      O3430   1.268       .  A
C3415      H3440   1.081   1_554  S
O3416      C3439   1.269       .  A
O3417     Mg3431   2.157       .  S
O3418     Mg3448   2.299       .  S
C3419      O3432   1.268       .  A
C3419      O3424   1.272       .  A
C3419      C3960   1.481       .  S
C3420      O3447   1.270       .  A
C3420      C3950   1.478       .  S
Mg3421     O3428   2.129       .  S
Mg3421     O3429   2.164       .  S
Mg3421     O3422   2.302       .  S
Mg3421     O3423   2.299       .  S
Mg3421     O3450   2.250       .  S
O3423      C3427   1.268   1_554  A
O3424     Mg3431   2.285       .  S
O3425      C3444   1.274       .  A
O3426      C3446   1.269       .  A
O3426     Mg3442   2.262       .  S
O3428     Mg3442   2.147       .  S
O3428      C3439   1.235       .  S
O3429     Mg3448   2.133   1_554  S
O3430     Mg3442   2.292       .  S
Mg3431     O3447   2.246       .  S
O3432     Mg3448   2.244       .  S
H3433      C3438   1.081       .  S
O3434     Mg3442   2.129       .  S
O3434      C3437   1.233       .  S
H3435      C3437   1.081       .  S
H3436      C3439   1.081       .  S
O3441     Mg3448   2.311       .  S
C3444      O3449   1.271   1_556  A
C3444      C3943   1.487       .  S
O3445      C3446   1.270       .  A
C3446      C4020   1.481       .  S
O3451     Mg3453   2.163   1_556  S
O3451      C3486   1.234       .  S
C3452      O3465   1.234       .  S
C3452      O3489   1.269       .  A
C3452      H3491   1.081       .  S
Mg3453     O3464   2.296       .  S
O3454     Mg3479   2.172       .  S
O3454      C3475   1.236       .  S
O3455      C3486   1.269       .  A
O3455     Mg3479   2.301       .  S
C3456      O3458   1.276       .  A
C3456      O3470   1.276       .  A
C3456      C4013   1.499       .  S
O3457      C3485   1.271   1_556  A
O3457     Mg3459   2.304       .  S
O3458     Mg3490   2.300       .  S
Mg3459     O3465   2.159       .  S
Mg3459     O3473   2.283       .  S
C3460      O3498   1.272       .  A
C3460      O3466   1.275   1_554  A
C3460      C3900   1.498       .  S
O3461      C3468   1.276       .  A
H3462      C3475   1.081       .  S
C3463      O3477   1.235       .  S
C3463      O3478   1.270       .  A
C3463      H3488   1.081   1_554  S
O3464      C3487   1.269       .  A
C3467      O3480   1.273       .  A
C3467      O3472   1.279       .  A
C3467      C3910   1.492       .  S
C3468      O3495   1.278       .  A
C3468      C3920   1.494       .  S
Mg3469     O3476   2.153       .  S
Mg3469     O3471   2.306       .  S
Mg3469     O3498   2.275       .  S
O3471      C3475   1.271   1_554  A
O3472     Mg3479   2.329       .  S
O3473      C3492   1.273       .  A
O3474      C3494   1.279       .  A
O3474     Mg3490   2.327       .  S
O3476      C3487   1.235       .  S
O3477     Mg3496   2.165   1_554  S
O3478     Mg3490   2.306       .  S
Mg3479     O3495   2.307       .  S
H3481      C3486   1.081   1_554  S
O3482     Mg3490   2.161       .  S
O3482      C3485   1.236       .  S
H3483      C3485   1.081       .  S
H3484      C3487   1.081       .  S
O3489     Mg3496   2.298       .  S
C3492      O3497   1.273   1_556  A
C3492      C3890   1.495       .  S
O3493      C3494   1.273       .  A
C3494      C4130   1.493       .  S
O3499     Mg3501   2.149       .  S
O3499     Mg3507   2.169       .  S
O3499      C3534   1.235       .  S
C3500      O3513   1.236       .  S
C3500      O3537   1.272       .  A
C3500      H3539   1.081       .  S
Mg3501     O3530   2.151       .  S
Mg3501     O3545   2.288       .  S
Mg3501     O3541   2.285       .  S
Mg3501     O3512   2.300       .  S
O3502     Mg3544   2.142       .  S
O3502     Mg3527   2.150       .  S
O3502      C3523   1.233       .  S
O3503      C3534   1.269       .  A
O3503     Mg3527   2.295       .  S
C3504      O3506   1.268       .  A
C3504      O3518   1.272       .  A
C3504      C3880   1.471       .  S
O3505      C3533   1.267       .  A
O3505     Mg3507   2.296       .  S
O3506     Mg3538   2.235       .  S
Mg3507     O3513   2.155       .  S
Mg3507     O3509   2.316       .  S
C3508      O3546   1.273       .  A
C3508      O3514   1.275       .  A
C3508      C3830   1.496       .  S
O3509      C3516   1.276       .  A
H3510      C3523   1.082       .  S
C3511      O3525   1.235       .  S
C3511      O3526   1.270       .  A
C3511      H3536   1.081       .  S
O3512      C3535   1.270       .  A
O3513     Mg3527   2.155       .  S
O3514     Mg3544   2.304       .  S
C3515      O3528   1.268       .  A
C3515      O3520   1.270       .  A
C3515      C3863   1.484       .  S
C3516      O3543   1.269       .  A
Mg3517     O3524   2.154       .  S
Mg3517     O3525   2.159       .  S
Mg3517     O3518   2.274       .  S
Mg3517     O3519   2.298       .  S
Mg3517     O3546   2.279       .  S
O3519      C3523   1.268       .  A
O3520     Mg3527   2.280       .  S
O3521      C3540   1.275       .  A
O3522      C3542   1.272       .  A
O3522     Mg3538   2.287       .  S
O3524     Mg3538   2.159       .  S
O3524      C3535   1.235       .  S
O3525     Mg3544   2.132       .  S
O3526     Mg3538   2.299       .  S
Mg3527     O3543   2.248       .  S
O3528     Mg3544   2.254       .  S
H3529      C3534   1.081       .  S
O3530     Mg3538   2.134       .  S
O3530      C3533   1.233       .  S
H3531      C3533   1.081       .  S
H3532      C3535   1.081       .  S
O3537     Mg3544   2.315       .  S
C3540      C3843   1.484       .  S
O3541      C3542   1.273       .  A
C3542      C3873   1.494       .  S
C3547      C3923   1.490       .  S
C3547      C3548   1.414       .  A
C3547      C3552   1.411       .  A
C3548      C3963   1.472       .  S
C3548      C3549   1.395       .  A
C3549      H3554   1.085       .  S
C3549      C3550   1.393       .  A
C3550      C3860   1.472       .  S
C3550      C3551   1.410       .  A
C3551      C3820   1.481       .  S
C3551      C3552   1.409       .  A
C3552      H3553   1.084       .  S
C3555      C3913   1.494       .  S
C3555      C3556   1.425       .  A
C3555      C3560   1.409       .  A
C3556      C3990   1.489       .  S
C3556      C3557   1.409       .  A
C3557      H3562   1.084       .  S
C3557      C3558   1.399       .  A
C3558      C3853   1.485       .  S
C3558      C3559   1.408       .  A
C3559      C3813   1.479       .  S
C3559      C3560   1.402       .  A
C3560      H3561   1.084       .  S
O3563     Mg3565   2.151       .  S
O3563     Mg3571   2.151       .  S
O3563      C3598   1.232       .  S
C3564      O3577   1.236       .  S
C3564      O3601   1.271       .  A
C3564      H3603   1.081       .  S
Mg3565     O3594   2.166       .  S
Mg3565     O3609   2.297       .  S
Mg3565     O3605   2.270       .  S
Mg3565     O3576   2.290       .  S
O3566     Mg3608   2.161       .  S
O3566     Mg3591   2.159       .  S
O3566      C3587   1.235       .  S
O3567      C3598   1.267       .  A
O3567     Mg3591   2.297       .  S
C3568      O3570   1.273       .  A
C3568      O3582   1.274       .  A
C3568      C3793   1.491       .  S
O3569      C3597   1.270       .  A
O3569     Mg3571   2.307       .  S
O3570     Mg3602   2.275       .  S
Mg3571     O3577   2.164       .  S
Mg3571     O3573   2.306       .  S
C3572      O3610   1.271       .  A
C3572      O3578   1.276       .  A
C3572      C3760   1.494       .  S
O3573      C3580   1.275       .  A
H3574      C3587   1.081       .  S
C3575      O3589   1.234       .  S
C3575      O3590   1.269       .  A
C3575      H3600   1.081       .  S
O3576      C3599   1.268       .  A
O3577     Mg3591   2.175       .  S
C3579      O3592   1.271       .  A
C3579      O3584   1.275       .  A
C3579      C3783   1.483       .  S
C3580      O3607   1.273       .  A
Mg3581     O3588   2.138       .  S
Mg3581     O3589   2.156       .  S
Mg3581     O3582   2.292       .  S
Mg3581     O3583   2.300       .  S
O3583      C3587   1.269       .  A
O3584     Mg3591   2.302       .  S
O3585      C3604   1.273       .  A
O3586      C3606   1.272       .  A
O3586     Mg3602   2.279       .  S
O3588     Mg3602   2.159       .  S
O3588      C3599   1.235       .  S
O3589     Mg3608   2.141       .  S
O3590     Mg3602   2.297       .  S
Mg3591     O3607   2.273       .  S
O3592     Mg3608   2.256       .  S
H3593      C3598   1.081       .  S
O3594     Mg3602   2.154       .  S
O3594      C3597   1.235       .  S
H3595      C3597   1.081       .  S
H3596      C3599   1.081       .  S
O3601     Mg3608   2.306       .  S
C3604      C3773   1.490       .  S
O3605      C3606   1.272       .  A
C3606      C3800   1.477       .  S
O3611     Mg3613   2.150       .  S
O3611     Mg3619   2.157       .  S
O3611      C3646   1.235       .  S
C3612      O3625   1.235       .  S
C3612      O3649   1.270       .  A
C3612      H3651   1.081       .  S
Mg3613     O3642   2.157       .  S
Mg3613     O3657   2.284       .  S
Mg3613     O3653   2.265       .  S
Mg3613     O3624   2.302       .  S
O3614     Mg3656   2.148       .  S
O3614     Mg3639   2.148       .  S
O3614      C3635   1.235       .  S
O3615      C3646   1.270       .  A
O3615     Mg3639   2.305       .  S
C3616      O3618   1.271       .  A
C3616      O3630   1.275       .  A
O3617      C3645   1.269       .  A
O3617     Mg3619   2.302       .  S
O3618     Mg3650   2.257       .  S
Mg3619     O3625   2.157       .  S
Mg3619     O3633   2.277       .  S
Mg3619     O3621   2.286       .  S
C3620      O3658   1.272       .  A
C3620      C3710   1.492       .  S
O3621      C3628   1.272       .  A
H3622      C3635   1.081       .  S
C3623      O3637   1.235       .  S
C3623      O3638   1.270       .  A
C3623      H3648   1.081   1_655  S
O3624      C3647   1.269       .  A
O3625     Mg3639   2.155       .  S
O3626     Mg3656   2.285   1_455  S
C3627      O3640   1.273       .  A
C3627      O3632   1.273       .  A
C3627      C3750   1.492       .  S
C3628      O3655   1.270       .  A
C3628      C3740   1.486       .  S
Mg3629     O3636   2.159       .  S
Mg3629     O3637   2.152       .  S
Mg3629     O3630   2.301       .  S
Mg3629     O3631   2.308       .  S
O3631      C3635   1.271       .  A
O3632     Mg3639   2.297       .  S
O3633      C3652   1.271       .  A
O3634      C3654   1.275       .  A
O3634     Mg3650   2.308       .  S
O3636     Mg3650   2.159       .  S
O3636      C3647   1.234       .  S
O3637     Mg3656   2.160       .  S
O3638     Mg3650   2.306       .  S
Mg3639     O3655   2.257       .  S
O3640     Mg3656   2.290       .  S
H3641      C3646   1.081       .  S
O3642     Mg3650   2.148       .  S
O3642      C3645   1.234       .  S
H3643      C3645   1.081       .  S
H3644      C3647   1.081       .  S
O3649     Mg3656   2.305       .  S
C3652      O3657   1.272       .  A
C3652      C3720   1.489       .  S
O3653      C3654   1.271       .  A
C3654      C3733   1.490       .  S
C3659      C4000   1.479       .  S
C3659      C3660   1.408       .  A
C3659      C3664   1.399       .  A
C3660      C3953   1.478       .  S
C3660      C3661   1.396       .  A
C3661      H3666   1.085       .  S
C3661      C3662   1.405       .  A
C3662      C3730   1.487       .  S
C3662      C3663   1.423       .  A
C3663      C3780   1.484       .  S
C3663      C3664   1.407       .  A
C3664      H3665   1.084       .  S
C3667      C4103   1.479       .  S
C3667      C3668   1.413       .  A
C3667      C3672   1.404       .  A
C3668      C4213   1.481       .  S
C3668      C3669   1.399       .  A
C3669      H3674   1.085       .  S
C3670      C3803   1.479       .  S
C3670      C3671   1.418       .  A
C3671      C3753   1.492       .  S
C3672      H3673   1.085       .  S
C3675      C4063   1.470       .  S
C3675      C3676   1.410       .  A
C3675      C3680   1.400       .  A
C3676      C4223   1.479       .  S
C3676      C3677   1.398       .  A
C3677      H3682   1.084       .  S
C3677      C3678   1.401       .  A
C3678      C3883   1.472       .  S
C3678      C3679   1.413       .  A
C3679      C3743   1.480       .  S
C3679      C3680   1.399       .  A
C3680      H3681   1.084       .  S
C3683      C4110   1.490       .  S
C3683      C3684   1.418       .  A
C3683      C3688   1.408       .  A
C3684      C4053   1.485       .  S
C3684      C3685   1.404   1_565  A
C3685      H3690   1.084       .  S
C3686      C3790   1.485       .  S
C3686      C3687   1.414       .  A
C3687      C3870   1.484       .  S
C3688      H3689   1.084       .  S
C3691      C3692   1.413   1_556  A
C3692      C3933   1.480       .  S
C3693      C3980   1.482       .  S
C3693      C3694   1.412   1_545  A
C3694      C3903   1.492       .  S
C3695      C3940   1.476       .  S
C3695      C3696   1.413       .  A
C3697      C4043   1.486       .  S
C3697      C3698   1.414       .  A
C3697      C3702   1.416       .  A
C3698      C4093   1.487       .  S
C3698      C3699   1.413       .  A
C3699      C4203   1.489       .  S
C3699      C3700   1.415       .  A
C3700      C4033   1.483       .  S
C3700      C3701   1.413       .  A
C3701      C4083   1.495       .  S
C3701      C3702   1.415       .  A
C3702      C4190   1.484       .  S
C3703      C3713   1.487       .  S
C3703      C3704   1.412       .  A
C3703      C3708   1.414       .  A
C3704      C3840   1.483       .  S
C3704      C3705   1.413       .  A
C3705      C3763   1.490       .  S
C3705      C3706   1.415       .  A
C3706      C3723   1.485       .  S
C3706      C3707   1.419       .  A
C3707      C3833   1.489       .  S
C3707      C3708   1.416       .  A
C3708      C3770   1.491       .  S
C3709      C3710   1.414       .  A
C3709      C3714   1.394       .  A
C3709      F3716   1.358       .  S
C3710      C3711   1.414       .  A
C3711      C3712   1.403       .  A
C3711      F3718   1.357       .  S
C3712      C3713   1.403       .  A
C3712      F3717   1.357       .  S
C3713      C3714   1.400       .  A
C3714      F3715   1.358       .  S
C3719      C3720   1.414       .  A
C3719      C3724   1.395       .  A
C3719      F3726   1.358       .  S
C3720      C3721   1.411       .  A
C3721      C3722   1.403       .  A
C3721      F3728   1.358       .  S
C3722      C3723   1.405       .  A
C3722      F3727   1.357       .  S
C3723      C3724   1.399       .  A
C3724      F3725   1.358       .  S
C3729      C3730   1.407       .  A
C3729      C3734   1.399       .  A
C3729      F3736   1.358       .  S
C3730      C3731   1.404       .  A
C3731      C3732   1.403       .  A
C3731      F3738   1.358       .  S
C3732      C3733   1.414       .  A
C3732      F3737   1.358       .  S
C3733      C3734   1.409       .  A
C3734      F3735   1.358       .  S
C3739      C3740   1.414       .  A
C3739      C3744   1.400       .  A
C3739      F3746   1.358       .  S
C3740      C3741   1.411       .  A
C3741      C3742   1.395       .  A
C3741      F3748   1.358       .  S
C3742      C3743   1.403       .  A
C3742      F3747   1.358       .  S
C3743      C3744   1.401       .  A
C3744      F3745   1.358       .  S
C3749      C3750   1.411       .  A
C3749      C3754   1.404   1_655  A
C3750      C3751   1.411       .  A
C3751      C3752   1.400       .  A
C3751      F3758   1.358       .  S
C3752      C3753   1.405       .  A
C3752      F3757   1.358       .  S
C3753      C3754   1.407   1_655  A
C3759      C3760   1.413       .  A
C3759      C3764   1.399       .  A
C3759      F3766   1.358       .  S
C3760      C3761   1.415       .  A
C3761      C3762   1.401       .  A
C3761      F3768   1.358       .  S
C3762      C3763   1.402       .  A
C3762      F3767   1.358       .  S
C3763      C3764   1.402       .  A
C3764      F3765   1.357       .  S
C3769      C3770   1.401       .  A
C3769      C3774   1.399       .  A
C3769      F3776   1.358       .  S
C3770      C3771   1.405       .  A
C3771      C3772   1.400       .  A
C3771      F3778   1.357       .  S
C3772      C3773   1.411       .  A
C3772      F3777   1.358       .  S
C3773      C3774   1.415       .  A
C3774      F3775   1.358       .  S
C3779      C3780   1.407       .  A
C3779      C3784   1.400       .  A
C3779      F3786   1.358       .  S
C3780      C3781   1.404       .  A
C3781      C3782   1.400       .  A
C3781      F3788   1.358       .  S
C3784      F3785   1.358       .  S
C3789      C3790   1.403       .  A
C3789      C3794   1.398       .  A
C3789      F3796   1.357       .  S
C3790      C3791   1.403       .  A
C3791      C3792   1.401       .  A
C3791      F3798   1.358       .  S
C3792      C3793   1.413       .  A
C3792      F3797   1.358       .  S
C3793      C3794   1.413       .  A
C3794      F3795   1.358       .  S
C3799      C3800   1.406       .  A
C3800      C3801   1.411       .  A
C3801      C3802   1.396       .  A
C3801      F3808   1.358       .  S
C3802      C3803   1.402       .  A
C3802      F3807   1.358       .  S
C3804      F3805   1.358       .  S
C3809      C3810   1.413       .  A
C3809      C3814   1.396       .  A
C3809      F3816   1.358       .  S
C3811      F3818   1.358       .  S
C3812      C3813   1.401       .  A
C3813      C3814   1.402       .  A
C3814      F3815   1.358       .  S
C3819      C3820   1.401       .  A
C3819      C3824   1.402       .  A
C3819      F3826   1.358       .  S
C3820      C3821   1.402       .  A
C3822      F3827   1.358   1_455  S
C3823      C3824   1.416       .  A
C3824      F3825   1.358       .  S
C3829      C3830   1.414       .  A
C3829      C3834   1.403       .  A
C3829      F3836   1.358       .  S
C3830      C3831   1.414       .  A
C3831      C3832   1.399       .  A
C3831      F3838   1.358       .  S
C3832      C3833   1.402       .  A
C3832      F3837   1.357       .  S
C3833      C3834   1.404       .  A
C3834      F3835   1.357       .  S
C3839      C3840   1.399       .  A
C3839      C3844   1.395       .  A
C3839      F3846   1.358       .  S
C3840      C3841   1.404       .  A
C3841      C3842   1.400       .  A
C3841      F3848   1.357       .  S
C3842      C3843   1.409       .  A
C3842      F3847   1.358       .  S
C3843      C3844   1.413       .  A
C3844      F3845   1.358       .  S
C3849      C3850   1.411       .  A
C3849      C3854   1.399       .  A
C3849      F3856   1.358   1_565  S
C3850      C3851   1.412       .  A
C3851      C3852   1.400       .  A
C3851      F3858   1.358       .  S
C3852      C3853   1.403       .  A
C3852      F3857   1.358       .  S
C3853      C3854   1.404       .  A
C3854      F3855   1.358       .  S
C3859      C3860   1.401       .  A
C3859      C3864   1.397       .  A
C3859      F3866   1.357       .  S
C3860      C3861   1.400       .  A
C3861      C3862   1.396       .  A
C3861      F3868   1.358       .  S
C3862      C3863   1.414       .  A
C3862      F3867   1.358       .  S
C3863      C3864   1.411       .  A
C3864      F3865   1.358       .  S
C3869      C3870   1.401       .  A
C3869      C3874   1.397       .  A
C3869      F3876   1.358       .  S
C3871      F3878   1.358       .  S
C3872      C3873   1.412       .  A
C3873      C3874   1.416       .  A
C3874      F3875   1.358       .  S
C3879      C3880   1.407       .  A
C3879      C3884   1.396       .  A
C3879      F3886   1.358       .  S
C3880      C3881   1.409       .  A
C3881      C3882   1.391       .  A
C3881      F3888   1.358       .  S
C3882      C3883   1.399       .  A
C3882      F3887   1.358       .  S
C3883      C3884   1.405       .  A
C3884      F3885   1.358       .  S
C3889      C3890   1.412       .  A
C3889      C3894   1.402       .  A
C3889      F3896   1.358       .  S
C3891      C3892   1.399       .  A
C3891      F3898   1.358       .  S
C3892      F3897   1.358       .  S
C3893      C3894   1.404       .  A
C3894      F3895   1.357       .  S
C3899      C3904   1.402       .  A
C3899      F3906   1.358       .  S
C3900      C3901   1.415   1_554  A
C3901      C3902   1.401       .  A
C3901      F3908   1.358       .  S
C3902      C3903   1.402   1_556  A
C3902      F3907   1.357       .  S
C3904      F3905   1.357   1_455  S
C3909      C3910   1.409       .  A
C3909      C3914   1.404       .  A
C3910      C3911   1.412       .  A
C3911      C3912   1.403       .  A
C3911      F3918   1.358       .  S
C3912      C3913   1.406       .  A
C3912      F3917   1.357       .  S
C3913      C3914   1.409       .  A
C3914      F3915   1.358       .  S
C3919      C3920   1.409       .  A
C3919      C3924   1.406       .  A
C3919      F3926   1.357       .  S
C3920      C3921   1.414       .  A
C3921      C3922   1.401       .  A
C3921      F3928   1.358       .  S
C3922      C3923   1.402       .  A
C3922      F3927   1.358       .  S
C3923      C3924   1.408       .  A
C3924      F3925   1.357       .  S
C3929      C3930   1.413       .  A
C3929      C3934   1.398       .  A
C3929      F3936   1.358       .  S
C3930      C3931   1.413   1_554  A
C3931      C3932   1.396       .  A
C3931      F3938   1.357       .  S
C3932      C3933   1.400   1_556  A
C3932      F3937   1.358       .  S
C3933      C3934   1.400       .  A
C3934      F3935   1.357       .  S
C3939      C3940   1.401       .  A
C3939      C3944   1.399       .  A
C3939      F3946   1.357       .  S
C3940      C3941   1.397   1_556  A
C3941      C3942   1.393       .  A
C3941      F3948   1.358       .  S
C3942      C3943   1.417   1_554  A
C3942      F3947   1.358       .  S
C3943      C3944   1.411       .  A
C3944      F3945   1.357       .  S
C3949      C3950   1.410       .  A
C3949      C3954   1.397       .  A
C3949      F3956   1.358       .  S
C3950      C3951   1.408       .  A
C3951      C3952   1.396       .  A
C3951      F3958   1.358       .  S
C3952      C3953   1.404       .  A
C3952      F3957   1.357       .  S
C3953      C3954   1.402       .  A
C3954      F3955   1.358       .  S
C3959      C3960   1.411       .  A
C3959      C3964   1.394       .  A
C3959      F3966   1.358       .  S
C3960      C3961   1.413       .  A
C3961      C3962   1.396       .  A
C3961      F3968   1.357       .  S
C3962      C3963   1.401       .  A
C3962      F3967   1.358       .  S
C3963      C3964   1.402       .  A
C3964      F3965   1.358       .  S
C3969      C3974   1.394       .  A
C3969      F3976   1.357   1_565  S
C3970      C3971   1.412       .  A
C3971      C3972   1.401       .  A
C3971      F3978   1.357       .  S
C3972      C3973   1.402       .  A
C3972      F3977   1.357       .  S
C3974      F3975   1.358       .  S
C3979      F3986   1.358       .  S
C3980      C3981   1.404       .  A
C3981      C3982   1.402   1_545  A
C3981      F3988   1.357   1_545  S
C3982      C3983   1.411   1_565  A
C3982      F3987   1.357       .  S
C3983      C3984   1.415   1_554  A
C3989      C3990   1.405       .  A
C3989      C3994   1.401       .  A
C3989      F3996   1.357       .  S
C3990      C3991   1.409       .  A
C3991      C3992   1.400       .  A
C3991      F3998   1.358       .  S
C3992      C3993   1.408       .  A
C3992      F3997   1.358       .  S
C3993      C3994   1.411       .  A
C3994      F3995   1.358       .  S
C3999      C4000   1.400       .  A
C3999      C4004   1.398       .  A
C3999      F4006   1.358       .  S
C4000      C4001   1.403       .  A
C4001      C4002   1.396       .  A
C4001      F4008   1.358       .  S
C4002      C4003   1.412       .  A
C4002      F4007   1.358       .  S
C4003      C4004   1.415       .  A
C4004      F4005   1.358       .  S
C4009      C4010   1.405       .  A
C4009      C4014   1.402       .  A
C4009      F4016   1.357       .  S
C4010      C4011   1.405       .  A
C4011      C4012   1.405       .  A
C4011      F4018   1.358       .  S
C4012      C4013   1.413       .  A
C4012      F4017   1.357       .  S
C4013      C4014   1.415       .  A
C4014      F4015   1.358       .  S
C4019      C4020   1.410       .  A
C4019      C4024   1.397       .  A
C4019      F4026   1.358       .  S
C4020      C4021   1.415       .  A
C4021      C4022   1.393       .  A
C4021      F4028   1.358       .  S
C4022      C4023   1.397       .  A
C4022      F4027   1.358       .  S
C4023      C4024   1.402       .  A
C4024      F4025   1.358       .  S
C4029      C4030   1.412       .  A
C4029      C4034   1.397       .  A
C4029      F4036   1.358       .  S
C4030      C4031   1.413       .  A
C4031      C4032   1.396       .  A
C4031      F4038   1.358       .  S
C4032      C4033   1.401       .  A
C4032      F4037   1.358       .  S
C4033      C4034   1.402       .  A
C4034      F4035   1.358       .  S
C4039      C4040   1.411       .  A
C4039      C4044   1.403       .  A
C4039      F4046   1.358       .  S
C4040      C4041   1.414       .  A
C4041      C4042   1.397       .  A
C4041      F4048   1.358       .  S
C4042      C4043   1.400       .  A
C4042      F4047   1.358       .  S
C4043      C4044   1.405       .  A
C4044      F4045   1.357       .  S
C4049      C4050   1.410   1_545  A
C4050      C4051   1.414       .  A
C4051      C4052   1.397       .  A
C4051      F4058   1.358       .  S
C4052      C4053   1.402       .  A
C4052      F4057   1.358       .  S
C4054      F4055   1.358       .  S
C4059      C4060   1.413       .  A
C4059      C4064   1.392       .  A
C4059      F4066   1.358       .  S
C4060      C4061   1.413       .  A
C4061      C4062   1.397       .  A
C4061      F4068   1.358       .  S
C4062      C4063   1.399       .  A
C4062      F4067   1.358       .  S
C4063      C4064   1.399       .  A
C4064      F4065   1.358       .  S
C4069      C4070   1.411       .  A
C4069      C4074   1.398       .  A
C4069      F4076   1.358       .  S
C4070      C4071   1.414       .  A
C4071      C4072   1.396       .  A
C4071      F4078   1.358       .  S
C4072      C4073   1.401       .  A
C4072      F4077   1.358       .  S
C4073      C4074   1.404       .  A
C4074      F4075   1.357       .  S
C4079      C4080   1.413       .  A
C4079      C4084   1.397       .  A
C4079      F4086   1.358       .  S
C4080      C4081   1.411       .  A
C4081      C4082   1.403       .  A
C4081      F4088   1.358       .  S
C4082      C4083   1.405       .  A
C4082      F4087   1.357       .  S
C4083      C4084   1.403       .  A
C4084      F4085   1.358       .  S
C4089      C4090   1.412       .  A
C4089      C4094   1.400       .  A
C4089      F4096   1.357       .  S
C4090      C4091   1.416       .  A
C4091      C4092   1.398       .  A
C4091      F4098   1.358       .  S
C4092      C4093   1.400       .  A
C4092      F4097   1.358       .  S
C4093      C4094   1.402       .  A
C4094      F4095   1.357       .  S
C4099      C4100   1.409       .  A
C4100      C4101   1.413       .  A
C4101      C4102   1.398       .  A
C4101      F4108   1.358       .  S
C4102      C4103   1.401       .  A
C4102      F4107   1.358       .  S
C4104      F4105   1.358       .  S
C4109      C4110   1.404       .  A
C4109      C4114   1.401       .  A
C4109      F4116   1.358       .  S
C4110      C4111   1.406       .  A
C4111      C4112   1.401       .  A
C4111      F4118   1.357   1_565  S
C4112      C4113   1.411       .  A
C4112      F4117   1.358       .  S
C4113      C4114   1.413       .  A
C4114      F4115   1.358       .  S
C4119      C4120   1.415       .  A
C4119      C4124   1.401       .  A
C4120      C4121   1.410       .  A
C4121      C4122   1.403       .  A
C4121      F4128   1.358   1_655  S
C4122      C4123   1.406       .  A
C4122      F4127   1.358       .  S
C4123      C4124   1.401       .  A
C4124      F4125   1.358       .  S
C4129      C4130   1.412       .  A
C4129      C4134   1.402       .  A
C4129      F4136   1.358       .  S
C4130      C4131   1.411       .  A
C4131      C4132   1.404       .  A
C4132      C4133   1.407       .  A
C4132      F4137   1.358       .  S
C4133      C4134   1.404       .  A
C4134      F4135   1.358       .  S
C4139      C4140   1.412       .  A
C4139      C4144   1.401       .  A
C4139      F4146   1.357       .  S
C4140      C4141   1.410       .  A
C4141      C4142   1.401       .  A
C4141      F4148   1.358       .  S
C4142      C4143   1.407       .  A
C4142      F4147   1.358       .  S
C4143      C4144   1.404       .  A
C4144      F4145   1.358       .  S
C4149      C4150   1.400       .  A
C4149      C4154   1.397       .  A
C4149      F4156   1.358       .  S
C4150      C4151   1.403       .  A
C4151      C4152   1.400       .  A
C4151      F4158   1.358       .  S
C4152      C4153   1.413       .  A
C4152      F4157   1.358       .  S
C4153      C4154   1.414       .  A
C4159      C4160   1.413       .  A
C4159      C4164   1.396       .  A
C4159      F4166   1.358       .  S
C4160      C4161   1.413       .  A
C4161      C4162   1.398       .  A
C4161      F4168   1.358       .  S
C4162      C4163   1.401       .  A
C4162      F4167   1.358       .  S
C4163      C4164   1.401       .  A
C4164      F4165   1.357       .  S
C4169      C4170   1.412       .  A
C4169      C4174   1.400       .  A
C4169      F4176   1.358       .  S
C4170      C4171   1.412       .  A
C4171      C4172   1.393       .  A
C4171      F4178   1.358       .  S
C4172      C4173   1.399       .  A
C4172      F4177   1.358       .  S
C4173      C4174   1.402       .  A
C4174      F4175   1.358       .  S
C4179      C4180   1.404       .  A
C4179      C4184   1.400       .  A
C4179      F4186   1.358       .  S
C4180      C4181   1.403       .  A
C4181      C4182   1.402       .  A
C4181      F4188   1.358       .  S
C4182      F4187   1.358       .  S
C4189      C4190   1.401       .  A
C4189      C4194   1.392       .  A
C4189      F4196   1.357       .  S
C4190      C4191   1.402       .  A
C4191      C4192   1.401       .  A
C4191      F4198   1.357       .  S
C4192      C4193   1.414       .  A
C4192      F4197   1.358       .  S
C4193      C4194   1.411       .  A
C4194      F4195   1.357       .  S
C4199      C4200   1.409       .  A
C4199      C4204   1.402       .  A
C4199      F4206   1.358       .  S
C4200      C4201   1.414       .  A
C4201      C4202   1.396       .  A
C4201      F4208   1.358       .  S
C4202      C4203   1.399       .  A
C4202      F4207   1.358       .  S
C4203      C4204   1.406       .  A
C4204      F4205   1.357       .  S
C4209      C4210   1.413       .  A
C4209      C4214   1.397       .  A
C4209      F4216   1.358       .  S
C4210      C4211   1.415       .  A
C4211      C4212   1.403       .  A
C4212      C4213   1.403       .  A
C4213      C4214   1.401       .  A
C4214      F4215   1.358       .  S
C4219      C4220   1.407       .  A
C4219      C4224   1.401       .  A
C4219      F4226   1.357       .  S
C4220      C4221   1.412       .  A
C4221      C4222   1.395       .  A
C4221      F4228   1.358       .  S
C4222      C4223   1.399       .  A
C4222      F4227   1.358       .  S
C4223      C4224   1.405       .  A
C4224      F4225   1.357       .  S
C4229      C4230   1.399       .  A
C4229      C4234   1.394       .  A
C4229      F4236   1.358       .  S
C4230      C4231   1.401       .  A
C4232      F4237   1.358       .  S
C4233      C4234   1.413       .  A
C4234      F4235   1.358       .  S
C4239      C4240   1.412       .  A
C4239      C4244   1.402       .  A
C4239      F4246   1.358       .  S
C4240      C4241   1.412       .  A
C4241      C4242   1.398       .  A
C4241      F4248   1.357       .  S
C4242      C4243   1.402       .  A
C4242      F4247   1.358       .  S
C4243      C4244   1.406       .  A
C4244      F4245   1.358       .  S
