geometry optimzed in LAMMPS
_audit_creation_date              2020-11-30 
_audit_creation_method            'lammps2cif' 
_symmetry_space_group_name_H-M    'P1' 
_symmetry_Int_Tables_number       1 
_symmetry_cell_setting            triclinic 
loop_ 
_symmetry_equiv_pos_as_xyz 
  x,y,z 
_cell_length_a                    50.21785759 
_cell_length_b                    50.17804802365572 
_cell_length_c                    92.88828339411876 
_cell_angle_alpha                 90.48194313881153 
_cell_angle_beta                  90.13015564449768 
_cell_angle_gamma                 119.80259886071359 
loop_ 
_atom_site_label 
_atom_site_type_symbol 
_atom_site_fract_x 
_atom_site_fract_y 
_atom_site_fract_z 
_atom_site_charge 
O1          O  0.07014272  0.18346410  0.35730266    -0.88000
C2          C  0.10393899  0.13147104  0.33822811     0.88100
Mg3        Mg  0.02419793  0.17647993  0.35442750     1.58100
O4          O  0.13666885  0.20728056  0.32556719    -0.87700
O5          O  0.11899756  0.21858073  0.35691481    -0.75000
C6          C  0.01510404  0.16754936  0.28269463     0.93100
O7          O  0.03199974  0.11255124  0.34715476    -0.74800
O8          O  0.99614720  0.16049221  0.29305805    -0.82300
Mg9        Mg  0.07286741  0.14291868  0.36189513     1.58000
C10         C  0.13869220  0.21617047  0.28076633     0.93000
O11         O  0.11015249  0.16813606  0.37839735    -0.80600
H12         H  0.15922862  0.25272451  0.32895994    -0.05900
C13         C  0.06280870  0.14023447  0.30350740     0.88000
O14         O  0.04242948  0.21596518  0.33809326    -0.75100
O15         O  0.10496589  0.15341035  0.34480257    -0.87900
O16         O  0.15058801  0.20918785  0.29113435    -0.80700
C17         C  0.18956098  0.17920978  0.32496940     0.93200
C18         C  0.13874471  0.17893078  0.38003140     0.93000
Mg19       Mg  0.08130180  0.20679627  0.30089793     1.58000
O20         O  0.04375559  0.18045363  0.28483254    -0.80600
O21         O  0.12229925  0.23767937  0.31563867    -0.74800
O22         O  0.17822321  0.18044203  0.33710397    -0.80700
O23         O  0.04120981  0.13207101  0.38047175    -0.82400
O24         O  0.47367306  0.16830236  0.32644116    -0.80700
C25         C  0.14048172  0.23329125  0.32351997     0.87400
O26         O  0.04850987  0.19683782  0.31802172    -0.87900
O27         O  0.08380550  0.16662026  0.30620292    -0.88000
O28         O  0.03497626  0.13140150  0.30666439    -0.75000
Mg29       Mg  0.14622738  0.19719649  0.34664556     1.58000
O30         O  0.17753973  0.18011031  0.31303283    -0.82400
H31         H  0.08576309  0.22585598  0.36529643    -0.06100
O32         O  0.01683533  0.14286880  0.33788647    -0.87700
H33         H  0.99455838  0.09755189  0.33421329    -0.05900
H34         H  0.05731781  0.24025730  0.31961099    -0.06100
C35         C  0.01334118  0.11692115  0.33966704     0.87400
C36         C  0.09119357  0.20975790  0.36012109     0.88000
C37         C  0.04965224  0.21854519  0.32488660     0.88100
H38         H  0.06831626  0.12405381  0.29848847    -0.06100
O39         O  0.11105300  0.13352556  0.32504755    -0.75100
Mg40       Mg  0.00708975  0.15243112  0.31659341     1.58000
H41         H  0.09629692  0.10999038  0.34371888    -0.06100
C42         C  0.01674646  0.13267843  0.38296270     0.93000
O43         O  0.97580599  0.16915155  0.35057661    -0.82400
C44         C  0.46269794  0.16924323  0.33881284     0.93100
O45         O  0.15694977  0.18689827  0.36939404    -0.82300
Mg46       Mg  0.12963108  0.17353137  0.30919344     1.58200
O47         O  0.00474102  0.14220779  0.37365170    -0.80700
O48         O  0.11335146  0.21580487  0.28206282    -0.82400
C49         C  0.18552618  0.15014401  0.20002388    -0.10500
C50         C  0.18480600  0.12551407  0.20722285    -0.04300
C51         C  0.17986812  0.09882794  0.20003565    -0.10500
C52         C  0.17735856  0.09715155  0.18483135     0.10500
C53         C  0.17799692  0.12194745  0.17725471    -0.02200
C54         C  0.18153124  0.14831359  0.18489613     0.10300
C55         C  0.18121963  0.17213294  0.17720281    -0.12300
C56         C  0.17680624  0.16993560  0.16232719    -0.12300
C57         C  0.17318780  0.14412856  0.15461610     0.10300
C58         C  0.17441816  0.12011604  0.16203602    -0.02200
C59         C  0.17460425  0.07173319  0.17700367    -0.12400
C60         C  0.17277069  0.07070775  0.16193081    -0.12400
C61         C  0.17228863  0.09444108  0.15423874     0.10500
C62         C  0.16895922  0.09317043  0.13900498    -0.10500
C63         C  0.16587426  0.11610524  0.13220427    -0.04300
C64         C  0.16806773  0.14138172  0.13963938    -0.10500
H65         H  0.18419455  0.19260259  0.18265102     0.07800
H66         H  0.17619196  0.18862138  0.15688294     0.07800
H67         H  0.17440690  0.05270320  0.18251261     0.07900
H68         H  0.17094556  0.05084330  0.15633031     0.07900
H69         H  0.18589753  0.12623246  0.21890152     0.04400
H70         H  0.16383533  0.11539755  0.12054404     0.04400
C71         C  0.40917086  0.06420749  0.19333377    -0.10500
C72         C  0.43251765  0.09125277  0.19936162    -0.04300
C73         C  0.45664089  0.11329409  0.19131730    -0.10500
C74         C  0.45813218  0.10827663  0.17639723     0.10500
C75         C  0.43442445  0.08088905  0.16988481    -0.02200
C76         C  0.40984919  0.05869975  0.17840555     0.10300
C77         C  0.38659244  0.03205100  0.17174519    -0.12300
C78         C  0.38711308  0.02718564  0.15696435    -0.12300
C79         C  0.41110457  0.04863844  0.14834496     0.10300
C80         C  0.43529909  0.07560609  0.15485662    -0.02200
C81         C  0.48226686  0.12959309  0.16784804    -0.12400
C82         C  0.48337293  0.12415431  0.15310425    -0.12400
C83         C  0.46018739  0.09736067  0.14636170     0.10500
C84         C  0.46125153  0.09121268  0.13144634    -0.10500
C85         C  0.43714796  0.06433996  0.12539324    -0.04300
C86         C  0.41188439  0.04363339  0.13339400    -0.10500
H87         H  0.36768582  0.01485875  0.17793285     0.07800
H88         H  0.36872494  0.00615151  0.15236217     0.07800
H89         H  0.50055538  0.15057054  0.17256413     0.07900
H90         H  0.50268988  0.14106396  0.14703886     0.07900
H91         H  0.43244202  0.09495391  0.21090211     0.04400
H92         H  0.43699441  0.06037504  0.11388621     0.04400
O93         O  0.04805839  0.41617769  0.35836378    -0.88000
C94         C  0.13847274  0.45075579  0.34728080     0.88100
Mg95       Mg  0.01180736  0.37093711  0.35210073     1.58100
O96         O  0.10156202  0.48389106  0.32811390    -0.87700
O97         O  0.06070126  0.46467701  0.35653082    -0.75000
C98         C  0.03496729  0.36311425  0.28197779     0.93100
O99         O  0.08474415  0.37944646  0.35340106    -0.74800
O100        O  0.02429440  0.34533111  0.29271474    -0.82300
Mg101      Mg  0.08878567  0.41896550  0.36754609     1.58000
C102        C  0.11050933  0.48896223  0.28317514     0.93000
O103        O  0.09571032  0.45600821  0.38407928    -0.80600
H104        H  0.07655854  0.50485309  0.32807337    -0.05900
C105        C  0.10488924  0.41207827  0.30831970     0.88000
O106        O  0.99849534  0.39083342  0.33305077    -0.75100
O107        O  0.11622388  0.45240502  0.35175051    -0.87900
O108        O  0.12807943  0.49853048  0.29425760    -0.80700
C109        C  0.18142359  0.03724509  0.33505743     0.93200
C110        C  0.11289631  0.48492141  0.38546691     0.93000
Mg111      Mg  0.05706713  0.42924672  0.29992099     1.58000
O112        O  0.05065825  0.39218524  0.28345225    -0.80600
O113        O  0.06105659  0.46867466  0.31420019    -0.74800
O114        O  0.16364535  0.02726681  0.34590615    -0.80700
O115        O  0.06106204  0.38397476  0.38430929    -0.82400
O116        O  0.48388506  0.32072848  0.32138060    -0.80700
C117        C  0.08003094  0.48689112  0.32355435     0.87400
O118        O  0.02948693  0.39555407  0.31555338    -0.87900
O119        O  0.09774170  0.43230594  0.30931671    -0.88000
O120        O  0.08600401  0.38413859  0.31106084    -0.75000
Mg121      Mg  0.11211155  0.49306929  0.35074834     1.58000
O122        O  0.17374694  0.02401533  0.32272930    -0.82400
H123        H  0.01822863  0.43082001  0.36212369    -0.06100
O124        O  0.04476733  0.36505332  0.33932214    -0.87700
H125        H  0.06893981  0.34324824  0.33952865    -0.05900
H126        H  0.99564591  0.40520106  0.31305131    -0.06100
C127        C  0.06582328  0.36147252  0.34399370     0.87400
C128        C  0.04138153  0.43679022  0.35925483     0.88000
C129        C  0.00725987  0.39718035  0.32011431     0.88100
H130        H  0.12813273  0.41848103  0.30541001    -0.06100
O131        O  0.14751459  0.45737660  0.33440866    -0.75100
Mg132      Mg  0.03479577  0.35546313  0.31670509     1.58000
H133        H  0.14992338  0.44260302  0.35436980    -0.06100
C134        C  0.03597702  0.35862263  0.38433219     0.93000
O135        O  0.47323101  0.32421918  0.34447049    -0.82400
C136        C  0.46614133  0.31066833  0.33220651     0.93100
O137        O  0.12351261  0.50257024  0.37467483    -0.82300
Mg138      Mg  0.13425444  0.47728637  0.31541738     1.58200
O139        O  0.01811333  0.34898465  0.37331454    -0.80700
O140        O  0.08492851  0.46411941  0.28317279    -0.82400
O141        O  0.34669528  0.41685380  0.31189160    -0.88000
C142        C  0.28344259  0.44505216  0.31908725     0.88100
Mg143      Mg  0.34068669  0.37300707  0.31831361     1.58100
O144        O  0.34962686  0.48296349  0.34090454    -0.87700
O145        O  0.37903960  0.46621241  0.31419754    -0.75000
C146        C  0.30236652  0.36467270  0.38713987     0.93100
O147        O  0.27323126  0.37511711  0.31381849    -0.74800
O148        O  0.29955936  0.34815048  0.37616916    -0.82300
Mg149      Mg  0.30871605  0.41583405  0.30063333     1.58000
C150        C  0.33597172  0.48814630  0.38608293     0.93000
O151        O  0.33955587  0.45286517  0.28493201    -0.71600
H152        H  0.39513209  0.50841338  0.34332584    -0.05900
C153        C  0.27546108  0.40762753  0.35871573     0.88000
O154        O  0.37036417  0.39538935  0.33860439    -0.75100
O155        O  0.30870833  0.44842822  0.31575896    -0.87900
O156        O  0.33066360  0.49768939  0.37423469    -0.80700
C157        C  0.32084878  0.03253189  0.33117397     0.93200
C158        C  0.34995143  0.48134578  0.28300493     0.93000
Mg159      Mg  0.33970540  0.43129617  0.37015867     1.58000
O160        O  0.30940047  0.39271172  0.38606725    -0.80600
O161        O  0.37490411  0.47263472  0.35709007    -0.74800
O162        O  0.32976688  0.02219542  0.32077705    -0.80700
O163        O  0.30915673  0.38318455  0.28433019    -0.82400
O164        O  0.32099824  0.32525454  0.34900709    -0.80700
C165        C  0.37396084  0.48906913  0.34698197     0.87400
O166        O  0.34061557  0.39930822  0.35455193    -0.87900
O167        O  0.30172319  0.43006568  0.35873563    -0.88000
O168        O  0.27037393  0.38045108  0.35633477    -0.75000
Mg169      Mg  0.35134649  0.49105114  0.31786837     1.58000
O170        O  0.31432370  0.51999923  0.34355817    -0.82400
H171        H  0.39204158  0.43453410  0.31007323    -0.06100
O172        O  0.29908274  0.36403676  0.32934971    -0.87700
H173        H  0.25340634  0.33924446  0.32753868    -0.05900
H174        H  0.38456953  0.41267622  0.35878017    -0.06100
C175        C  0.27450293  0.35836523  0.32366942     0.87400
C176        C  0.37321054  0.43882143  0.31184658     0.88000
C177        C  0.36583553  0.40274819  0.35109564     0.88100
H178        H  0.25622892  0.41125393  0.36055247    -0.06100
O179        O  0.27846551  0.45179453  0.33161296    -0.75100
Mg180      Mg  0.29872455  0.35618692  0.35221450     1.58000
H181        H  0.26493453  0.43537771  0.31128325    -0.06100
C182        C  0.31229876  0.35967230  0.28438713     0.93000
O183        O  0.33419384  0.32721818  0.32591302    -0.82400
C184        C  0.32865900  0.31463372  0.33823406     0.93100
O185        O  0.35296679  0.49949635  0.29336135    -0.82300
Mg186      Mg  0.30790219  0.47416691  0.35185157     1.58200
O187        O  0.31799800  0.34976531  0.29598866    -0.80700
O188        O  0.33850461  0.46420302  0.38655583    -0.82400
C189        C  0.42600407  0.31475911  0.20000194    -0.10500
C190        C  0.40194501  0.31504722  0.20729447    -0.04300
C191        C  0.37927167  0.31856701  0.20024139    -0.10500
C192        C  0.38085338  0.32227079  0.18500193     0.10500
C193        C  0.40462864  0.32073891  0.17729598    -0.02200
C194        C  0.42722184  0.31692754  0.18485197     0.10300
C195        C  0.45002040  0.31471563  0.17707235    -0.12300
C196        C  0.45064267  0.31587532  0.16208691    -0.12300
C197        C  0.42895283  0.32006109  0.15437785     0.10300
C198        C  0.40586823  0.32292935  0.16199873    -0.02200
C199        C  0.35938700  0.32681001  0.17719067    -0.12400
C200        C  0.36129613  0.33011485  0.16216677    -0.12400
C201        C  0.38412308  0.32799076  0.15433800     0.10500
C202        C  0.38641593  0.33105764  0.13908903    -0.10500
C203        C  0.40891776  0.32753439  0.13197945    -0.04300
C204        C  0.42990824  0.32194498  0.13921926    -0.10500
H205        H  0.46728836  0.31152212  0.18253491     0.07800
H206        H  0.46849750  0.31379937  0.15655564     0.07800
H207        H  0.34093549  0.32788778  0.18264424     0.07900
H208        H  0.34450848  0.33399801  0.15667767     0.07900
H209        H  0.40153957  0.31359749  0.21895586     0.04400
H210        H  0.40985006  0.32865047  0.12030209     0.04400
O211        O  0.28315145  0.02087261  0.97875159    -0.88000
C212        C  0.19261218  0.46380163  0.98946108     0.88100
Mg213      Mg  0.32018857  0.01229123  0.98404472     1.58100
O214        O  0.22777267  0.03319654  0.00899021    -0.87700
O215        O  0.26953815  0.05612237  0.98099620    -0.75000
C216        C  0.29653668  0.97975668  0.05365636     0.93100
O217        O  0.24684100  0.44691914  0.98258235    -0.74800
O218        O  0.30690330  0.47293292  0.04257806    -0.82300
Mg219      Mg  0.24253222  0.48274173  0.96932703     1.58000
C220        C  0.21955197  0.03061430  0.05416725     0.93000
O221        O  0.23625570  0.51306973  0.95327414    -0.80600
H222        H  0.25235758  0.07904802  0.00942469    -0.05900
C223        C  0.22588692  0.45841096  0.02744228     0.88000
O224        O  0.33322462  0.04418706  0.00386099    -0.75100
O225        O  0.21487298  0.48780241  0.98526438    -0.87900
O226        O  0.20146274  0.02227788  0.04320840    -0.80700
C227        C  0.14784066  0.50399036  0.00112003     0.93200
C228        C  0.21928358  0.52489892  0.95151354     0.93000
Mg229      Mg  0.27297301  0.02331022  0.03676338     1.58000
O230        O  0.28045517  0.99289901  0.05280588    -0.80600
O231        O  0.26827330  0.05846933  0.02291626    -0.74800
O232        O  0.16611041  0.51151604  0.99050651    -0.80700
O233        O  0.26994109  0.47675122  0.95237327    -0.82400
O234        O  0.34903634  0.99031983  0.01400346    -0.80700
C235        C  0.24914828  0.05768097  0.01369773     0.87400
O236        O  0.30085458  0.01760064  0.02067987    -0.87900
O237        O  0.23221857  0.48562969  0.02746898    -0.88000
O238        O  0.24544615  0.45027203  0.02415327    -0.75000
Mg239      Mg  0.21781587  0.03187641  0.98628169     1.58000
O240        O  0.15556763  0.50086854  0.01386814    -0.82400
H241        H  0.31252873  0.06549539  0.97570134    -0.06100
O242        O  0.28755911  0.47266400  0.99618989    -0.87700
H243        H  0.26415529  0.42679829  0.99552063    -0.05900
H244        H  0.33502520  0.06049583  0.02412216    -0.06100
C245        C  0.26659946  0.44801787  0.99145186     0.87400
C246        C  0.28936412  0.04802770  0.97825285     0.88000
C247        C  0.32356649  0.04138641  0.01666586     0.88100
H248        H  0.20270712  0.44086997  0.02992163    -0.06100
O249        O  0.18296891  0.46116971  0.00226620    -0.75100
Mg250      Mg  0.29704063  0.47300339  0.01873319     1.58000
H251        H  0.18161437  0.44432623  0.98217583    -0.06100
C252        C  0.29586303  0.47850793  0.95122898     0.93000
O253        O  0.35897739  0.00346598  0.99082709    -0.82400
C254        C  0.36656019  0.99754812  0.00302776     0.93100
O255        O  0.20719615  0.53107072  0.96211931    -0.82300
Mg256      Mg  0.19540754  0.49418156  0.02156393     1.58200
O257        O  0.31483407  0.48690181  0.96179631    -0.80700
O258        O  0.24486435  0.03054782  0.05385020    -0.82400
O259        O  0.28227460  0.25588874  0.02342004    -0.88000
C260        C  0.19265597  0.22708721  0.01161785     0.88100
Mg261      Mg  0.32088277  0.30008201  0.01855404     1.58100
O262        O  0.22465854  0.18675755  0.99423830    -0.87700
O263        O  0.26480405  0.20615905  0.02297868    -0.75000
C264        C  0.30047558  0.30420278  0.94826341     0.93100
O265        O  0.25003740  0.29748224  0.01963173    -0.74800
O266        O  0.31190325  0.32257750  0.95896490    -0.82300
Mg267      Mg  0.24354814  0.25603924  0.03272809     1.58000
C268        C  0.21880117  0.18069954  0.94910451     0.93000
O269        O  0.23873995  0.21832429  0.04746211    -0.80600
H270        H  0.24809160  0.16427466  0.99546386    -0.05900
C271        C  0.22807700  0.26095181  0.97372133     0.88000
O272        O  0.33367172  0.27921936  0.99965105    -0.75100
O273        O  0.21423026  0.22435602  0.01619943    -0.87900
O274        O  0.19980745  0.17148825  0.95956799    -0.80700
C275        C  0.14456508  0.13849029  0.00019109     0.93200
C276        C  0.21376116  0.19441526  0.05024315     0.93000
Mg277      Mg  0.27325703  0.23936127  0.96687134     1.58000
O278        O  0.28239908  0.27559170  0.94982658    -0.80600
O279        O  0.26624078  0.20002754  0.98165812    -0.74800
O280        O  0.16161460  0.14978094  0.01129784    -0.80700
O281        O  0.27268157  0.28750592  0.05042246    -0.82400
O282        O  0.35091032  0.34785632  0.98831892    -0.80700
C283        C  0.24595670  0.18257635  0.99053750     0.87400
O284        O  0.30140774  0.27327444  0.98261096    -0.87900
O285        O  0.23316944  0.23934282  0.97494369    -0.88000
O286        O  0.24838529  0.28856955  0.97658871    -0.75000
Mg287      Mg  0.21293002  0.18103997  0.01671364     1.58000
O288        O  0.15302296  0.15003772  0.98768337    -0.82400
H289        H  0.30900014  0.23785552  0.02789535    -0.06100
O290        O  0.28920897  0.30831212  0.00567541    -0.87700
H291        H  0.26871887  0.33379411  0.00610502    -0.05900
H292        H  0.33476202  0.26307273  0.97969854    -0.06100
C293        C  0.26970191  0.31430901  0.01036054     0.87400
C294        C  0.28643078  0.23372799  0.02489393     0.88000
C295        C  0.32382213  0.27171458  0.98687286     0.88100
H296        H  0.20539976  0.25611343  0.97046208    -0.06100
O297        O  0.18243091  0.21865357  0.99891685    -0.75100
Mg298      Mg  0.29966632  0.31518753  0.98294353     1.58000
H299        H  0.18260968  0.23722300  0.01845685    -0.06100
C300        C  0.29903188  0.31107908  0.05152428     0.93000
O301        O  0.36120156  0.34596892  0.01165660    -0.82400
C302        C  0.36867392  0.35837941  0.99926858     0.93100
O303        O  0.19786060  0.17579359  0.04028065    -0.82300
Mg304      Mg  0.19440781  0.19541481  0.98055232     1.58200
O305        O  0.31672015  0.32202573  0.04062412    -0.80700
O306        O  0.24500460  0.20459190  0.95013793    -0.82400
O307        O  0.02523749  0.26581521  0.02423868    -0.88000
C308        C  0.46602426  0.18006353  0.00748365     0.88100
Mg309      Mg  0.01962235  0.30575850  0.02170891     1.58100
O310        O  0.03798133  0.21793868  0.99064478    -0.87700
O311        O  0.05848071  0.24981046  0.02164940    -0.75000
C312        C  0.99871994  0.30527905  0.95053808     0.93100
O313        O  0.45270284  0.23521104  0.01816926    -0.74800
O314        O  0.99181348  0.31453180  0.96206298    -0.82300
Mg315      Mg  0.48506732  0.22439738  0.03119817     1.58000
C316        C  0.04014983  0.22149882  0.94537067     0.93000
O317        O  0.51265127  0.21148461  0.04637085    -0.80600
H318        H  0.08374794  0.23949939  0.99202996    -0.05900
C319        C  0.46914512  0.22721879  0.97142896     0.88000
O320        O  0.05453631  0.32353175  0.00324035    -0.75100
O321        O  0.48989250  0.19975439  0.01337936    -0.87900
O322        O  0.02970781  0.20156648  0.95533155    -0.80700
C323        C  0.50667598  0.13667924  0.99081911     0.93200
C324        C  0.52293170  0.19291444  0.04696688     0.93000
Mg325      Mg  0.03599318  0.27281338  0.96615688     1.58000
O326        O  0.00959287  0.28712055  0.95080097    -0.80600
O327        O  0.06736255  0.26130109  0.97961402    -0.74800
O328        O  0.51178697  0.15044912  0.00303349    -0.80700
O329        O  0.47922740  0.24863075  0.05030696    -0.82400
O330        O  0.00447366  0.34592578  0.99502113    -0.80700
C331        C  0.06373884  0.23917790  0.98750321     0.87400
O332        O  0.03008590  0.29748177  0.98403212    -0.87900
O333        O  0.49549519  0.23152194  0.97282626    -0.88000
O334        O  0.46193048  0.24699669  0.97562010    -0.75000
Mg335      Mg  0.03285056  0.20033086  0.01220794     1.58000
O336        O  0.50481511  0.14879660  0.97915047    -0.82400
H337        H  0.06934674  0.29160790  0.02998616    -0.06100
O338        O  0.48151874  0.27850336  0.00700083    -0.87700
H339        H  0.43570122  0.25672234  0.00594209    -0.05900
H340        H  0.07404049  0.33067277  0.98349135    -0.06100
C341        C  0.45591698  0.25719751  0.01029395     0.87400
C342        C  0.05158763  0.27001485  0.02556365     0.88000
C343        C  0.05362006  0.31783609  0.98986038     0.88100
H344        H  0.45159898  0.20577269  0.96678532    -0.06100
O345        O  0.46487769  0.17456508  0.99407024    -0.75100
Mg346      Mg  0.48645416  0.29611272  0.98537313     1.58000
H347        H  0.44546176  0.16777032  0.01382113    -0.06100
C348        C  0.48179660  0.27478735  0.05246595     0.93000
O349        O  0.01318569  0.34763291  0.01875395    -0.82400
C350        C  0.00928832  0.35932276  0.00737106     0.93100
O351        O  0.02824465  0.18197622  0.03556772    -0.82300
Mg352      Mg  0.50019189  0.19137212  0.97580936     1.58200
O353        O  0.49133558  0.29522283  0.04273969    -0.80700
O354        O  0.04284879  0.24794262  0.94697159    -0.82400
O355        O  0.18340870  0.06505219  0.64150751    -0.88000
C356        C  0.12799005  0.09586984  0.65936148     0.88100
Mg357      Mg  0.17846908  0.01994831  0.64422466     1.58100
O358        O  0.20330683  0.13129499  0.67348797    -0.87700
O359        O  0.21696949  0.11434401  0.64224617    -0.75000
C360        C  0.16569308  0.00965209  0.71584324     0.93100
O361        O  0.11206616  0.02493902  0.64998734    -0.74800
O362        O  0.15803198  0.49068589  0.70528345    -0.82300
Mg363      Mg  0.14245741  0.06626136  0.63592953     1.58000
C364        C  0.21168486  0.13265203  0.71831639     0.93000
O365        O  0.16767484  0.10372384  0.61958020    -0.80600
H366        H  0.24870686  0.15394645  0.67056003    -0.05900
C367        C  0.13663980  0.05600065  0.69448536     0.88000
O368        O  0.21642706  0.03884756  0.66146992    -0.75100
O369        O  0.15069599  0.09808504  0.65318605    -0.87900
O370        O  0.20236957  0.14400290  0.70859609    -0.80700
C371        C  0.17229887  0.18185526  0.67345472     0.93200
C372        C  0.17578609  0.13185063  0.61829153     0.93000
Mg373      Mg  0.20357258  0.07582223  0.69785130     1.58000
O374        O  0.17829587  0.03833909  0.71391910    -0.80600
O375        O  0.23369238  0.11676053  0.68340304    -0.74800
O376        O  0.17637786  0.17170887  0.66147598    -0.80700
O377        O  0.13415459  0.03495870  0.61745294    -0.82400
O378        O  0.16736960  0.46895014  0.67212401    -0.80700
C379        C  0.22928666  0.13511070  0.67573707     0.87400
O380        O  0.19460395  0.04311101  0.68088721    -0.87900
O381        O  0.16290828  0.07738172  0.69225771    -0.88000
O382        O  0.12839829  0.02832936  0.69105540    -0.75000
Mg383      Mg  0.19374104  0.14021422  0.65211702     1.58000
O384        O  0.17147322  0.16924343  0.68543567    -0.82400
H385        H  0.22618489  0.08203742  0.63417858    -0.06100
O386        O  0.14261850  0.01071361  0.65989773    -0.87700
H387        H  0.09713618  0.98722891  0.66244502    -0.05900
H388        H  0.23834628  0.05287848  0.68076169    -0.06100
C389        C  0.11655656  0.00647165  0.65748445     0.87400
C390        C  0.20937120  0.08672159  0.63904747     0.88000
C391        C  0.21723504  0.04503312  0.67476641     0.88100
H392        H  0.11999115  0.06105944  0.69925887    -0.06100
O393        O  0.12903896  0.10256595  0.67260756    -0.75100
Mg394      Mg  0.15065952  0.00133408  0.68155220     1.58000
H395        H  0.10668351  0.08744263  0.65346038    -0.06100
C396        C  0.13661507  0.01162912  0.61451664     0.93000
O397        O  0.17428021  0.97305832  0.64819589    -0.82400
C398        C  0.17211669  0.45947335  0.66005109     0.93100
O399        O  0.18274572  0.14976950  0.62917834    -0.82300
Mg400      Mg  0.16804060  0.12248979  0.68933930     1.58200
O401        O  0.14651516  0.99983145  0.62376362    -0.80700
O402        O  0.21247068  0.10806517  0.71632630    -0.82400
C403        C  0.13436585  0.15515167  0.86201343    -0.10500
C404        C  0.11177359  0.15992397  0.86820565    -0.04300
C405        C  0.09342292  0.16799470  0.86018932    -0.10500
C406        C  0.09681471  0.17054880  0.84503817     0.10500
C407        C  0.12027834  0.16669860  0.83843206    -0.02200
C408        C  0.13969074  0.15976604  0.84699884     0.10300
C409        C  0.16343582  0.15733545  0.84028189    -0.12300
C410        C  0.16839744  0.16191208  0.82548203    -0.12300
C411        C  0.14906320  0.16791327  0.81677683     0.10300
C412        C  0.12436477  0.16981236  0.82324008    -0.02200
C413        C  0.07726403  0.17621303  0.83632221    -0.12400
C414        C  0.08032075  0.17773880  0.82131439    -0.12400
C415        C  0.10375097  0.17478945  0.81454206     0.10500
C416        C  0.10781952  0.17739612  0.79936391    -0.10500
C417        C  0.13313280  0.17688603  0.79347778    -0.04300
C418        C  0.15380812  0.17254335  0.80178198    -0.10500
H419        H  0.17858038  0.15218237  0.84647026     0.07800
H420        H  0.18739468  0.16042366  0.82087331     0.07800
H421        H  0.05910408  0.17898170  0.84107490     0.07900
H422        H  0.06458234  0.18190982  0.81504180     0.07900
H423        H  0.10900687  0.15828371  0.87981229     0.04400
H424        H  0.13621541  0.17855828  0.78189584     0.04400
C425        C  0.11249584  0.46558309  0.86852084    -0.10500
C426        C  0.08648029  0.44462005  0.87606900    -0.04300
C427        C  0.06153919  0.41964348  0.86931276    -0.10500
C428        C  0.06186761  0.41618262  0.85413632     0.10500
C429        C  0.08804114  0.43739934  0.84618907    -0.02200
C430        C  0.11376141  0.46178496  0.85344429     0.10300
C431        C  0.13973608  0.48178821  0.84541078    -0.12300
C432        C  0.14057421  0.47811299  0.83050237    -0.12300
C433        C  0.11530599  0.45459693  0.82308845     0.10300
C434        C  0.08863732  0.43402242  0.83096790    -0.02200
C435        C  0.03668235  0.39249402  0.84666559    -0.12400
C436        C  0.03698468  0.38956745  0.83167093    -0.12400
C437        C  0.06265707  0.40993594  0.82363903     0.10500
C438        C  0.06356276  0.40700184  0.80847163    -0.10500
C439        C  0.08971816  0.42766970  0.80110458    -0.04300
C440        C  0.11567957  0.45062730  0.80799369    -0.10500
H441        H  0.15963165  0.50051232  0.85061959     0.07800
H442        H  0.16108176  0.49397237  0.82476627     0.07800
H443        H  0.01632316  0.37626294  0.85237594     0.07900
H444        H  0.01700458  0.37111247  0.82637517     0.07900
H445        H  0.08648028  0.44683447  0.88769987     0.04400
H446        H  0.08988492  0.42574169  0.78944075     0.04400
O447        O  0.42154182  0.09361585  0.64223693    -0.88000
C448        C  0.39395453  0.00563150  0.65481457     0.88100
Mg449      Mg  0.46750213  0.13214224  0.64507093     1.58100
O450        O  0.36330159  0.04307883  0.67530285    -0.87700
O451        O  0.37312835  0.07925583  0.64596283    -0.75000
C452        C  0.49511345  0.12512054  0.71476775     0.93100
O453        O  0.46159102  0.06021225  0.64471681    -0.74800
O454        O  0.00989795  0.13446353  0.70300379    -0.82300
Mg455      Mg  0.41810029  0.05276168  0.63284701     1.58000
C456        C  0.37004455  0.04241691  0.72026437     0.93000
O457        O  0.37724024  0.04416428  0.61886946    -0.80600
H458        H  0.34077741  0.06651375  0.67634357    -0.05900
C459        C  0.44236088  0.04825497  0.69197384     0.88000
O460        O  0.45231437  0.14867545  0.66490020    -0.75100
O461        O  0.38944314  0.02609573  0.65022722    -0.87900
O462        O  0.35796489  0.02357445  0.70971364    -0.80700
C463        C  0.31142626  0.46162701  0.67250910     0.93200
C464        C  0.34824975  0.02748470  0.61827652     0.93000
Mg465      Mg  0.42397605  0.09482412  0.70027279     1.58000
O466        O  0.46607208  0.10746475  0.71489562    -0.80600
O467        O  0.38020999  0.08557012  0.68807833    -0.74800
O468        O  0.31784964  0.47808897  0.66117607    -0.80700
O469        O  0.44685294  0.07917047  0.61409937    -0.82400
O470        O  0.02513962  0.16661560  0.67128949    -0.80700
C471        C  0.36034439  0.06470304  0.67986927     0.87400
O472        O  0.45285191  0.12087300  0.68269706    -0.87900
O473        O  0.42089803  0.05362047  0.69135386    -0.88000
O474        O  0.46923263  0.06776077  0.68794228    -0.75000
Mg475      Mg  0.34828334  0.02869800  0.65340290     1.58000
O476        O  0.32781816  0.47128300  0.68394347    -0.82400
H477        H  0.40446176  0.12154349  0.63882182    -0.06100
O478        O  0.47831567  0.10223821  0.65779004    -0.87700
H479        H  0.50080495  0.07876110  0.65662698    -0.05900
H480        H  0.44280224  0.15441792  0.68553801    -0.06100
C481        C  0.48132149  0.08072389  0.65310778     0.87400
C482        C  0.40008710  0.09909595  0.64210602     0.88000
C483        C  0.44936360  0.14197835  0.67814878     0.88100
H484        H  0.43804457  0.02616486  0.69580558    -0.06100
O485        O  0.39156139  0.99912418  0.66809044    -0.75100
Mg486      Mg  0.49372212  0.11746380  0.67960441     1.58000
H487        H  0.40112049  0.99370514  0.64742131    -0.06100
C488        C  0.47148044  0.10451740  0.61264575     0.93000
O489        O  0.01547554  0.17342843  0.64852645    -0.82400
C490        C  0.03224346  0.18249128  0.65980707     0.93100
O491        O  0.33241452  0.01450265  0.62947047    -0.82300
Mg492      Mg  0.37528669  0.01427428  0.68799244     1.58200
O493        O  0.48434558  0.12297415  0.62321864    -0.80700
O494        O  0.39450544  0.06811166  0.71896963    -0.82400
O495        O  0.41511331  0.34001592  0.68942867    -0.88000
C496        C  0.44757159  0.27970059  0.68357929     0.88100
Mg497      Mg  0.37045150  0.33235890  0.68344144     1.58100
O498        O  0.47881530  0.34229204  0.65978726    -0.87700
O499        O  0.46356519  0.37411471  0.68647444    -0.75000
C500        C  0.35514691  0.28306856  0.61632622     0.93100
O501        O  0.37651125  0.26652360  0.68884531    -0.74800
O502        O  0.33940624  0.28244597  0.62711470    -0.82300
Mg503      Mg  0.41734725  0.30468361  0.70128334     1.58000
C504        C  0.47681904  0.31951093  0.61467267     0.93000
O505        O  0.45518618  0.33877318  0.71630364    -0.80600
H506        H  0.50172759  0.38734225  0.65585892    -0.05900
C507        C  0.40273784  0.26265643  0.64484663     0.88000
O508        O  0.39003141  0.35903287  0.66253007    -0.75100
O509        O  0.44963005  0.30479990  0.68617101    -0.87900
O510        O  0.48944685  0.31718096  0.62626743    -0.80700
C511        C  0.03313099  0.31977795  0.66903122     0.93200
C512        C  0.48403853  0.35091699  0.71793759     0.93000
Mg513      Mg  0.42190024  0.32374050  0.63172336     1.58000
O514        O  0.38229048  0.28770584  0.61771780    -0.80600
O515        O  0.46420123  0.36303169  0.64310637    -0.74800
O516        O  0.02428231  0.33035022  0.67937854    -0.80700
O517        O  0.38473765  0.30469717  0.71749814    -0.82400
O518        O  0.31820212  0.30548104  0.65400824    -0.80700
C519        C  0.48263372  0.36503011  0.65301871     0.87400
O520        O  0.39190045  0.32641415  0.64751899    -0.87900
O521        O  0.42441664  0.28930377  0.64415582    -0.88000
O522        O  0.37540054  0.25685444  0.64727004    -0.75000
Mg523      Mg  0.49034837  0.34847647  0.68278749     1.58000
O524        O  0.51779517  0.30931315  0.65733193    -0.82400
H525        H  0.43064367  0.38515009  0.69090615    -0.06100
O526        O  0.36043284  0.28867026  0.67354807    -0.87700
H527        H  0.33884972  0.24318235  0.67611842    -0.05900
H528        H  0.40394888  0.36924719  0.64181782    -0.06100
C529        C  0.35748184  0.26536815  0.67947578     0.87400
C530        C  0.43604370  0.36702081  0.68916140     0.88000
C531        C  0.39540600  0.35209784  0.65013957     0.88100
H532        H  0.40714794  0.24376713  0.64346428    -0.06100
O533        O  0.45271526  0.27292456  0.67111039    -0.75100
Mg534      Mg  0.34989091  0.28438245  0.65091683     1.58000
H535        H  0.44033404  0.26280934  0.69199557    -0.06100
C536        C  0.36082052  0.30716817  0.71763078     0.93000
O537        O  0.32433296  0.32593860  0.67605155    -0.82400
C538        C  0.30987196  0.31712127  0.66408473     0.93100
O539        O  0.00164820  0.35382202  0.70742514    -0.82300
Mg540      Mg  0.47031067  0.29895394  0.64991828     1.58200
O541        O  0.34995081  0.31223761  0.70616357    -0.80700
O542        O  0.45234739  0.32096876  0.61502736    -0.82400
C543        C  0.34117788  0.43581368  0.86170818    -0.10500
C544        C  0.34482041  0.41293890  0.86817885    -0.04300
C545        C  0.34343596  0.38840372  0.86043018    -0.10500
C546        C  0.33889170  0.38676279  0.84533181     0.10500
C547        C  0.33653909  0.41069041  0.83833798    -0.02200
C548        C  0.33747119  0.43525421  0.84658234     0.10300
C549        C  0.33493807  0.45849774  0.83949133    -0.12300
C550        C  0.33184236  0.45796975  0.82451864    -0.12300
C551        C  0.33052687  0.43383191  0.81615877     0.10300
C552        C  0.33257097  0.40971123  0.82313350    -0.02200
C553        C  0.33678022  0.36221083  0.83707061    -0.12400
C554        C  0.33231868  0.36094845  0.82216190    -0.12400
C555        C  0.33026693  0.38443313  0.81496553     0.10500
C556        C  0.32530072  0.38321510  0.79987591    -0.10500
C557        C  0.32405363  0.40751310  0.79329500    -0.04300
C558        C  0.32642543  0.43259392  0.80103753    -0.10500
H559        H  0.33570047  0.47745637  0.84550194     0.07800
H560        H  0.33006591  0.47645546  0.81953531     0.07800
H561        H  0.33848879  0.34374090  0.84212001     0.07900
H562        H  0.33042343  0.34133210  0.81631279     0.07900
H563        H  0.34678892  0.41319613  0.87983932     0.04400
H564        H  0.32190119  0.40728152  0.78166531     0.04400
C565        C  0.99815035  0.24637252  0.46803809    -0.10500
C566        C  0.99184986  0.21895279  0.46122268    -0.04300
C567        C  0.99169045  0.19469589  0.46853724    -0.10500
C568        C  0.99811693  0.19779001  0.48351363     0.10500
C569        C  0.00350169  0.22509167  0.49092090    -0.02200
C570        C  0.00368619  0.24961087  0.48316368     0.10300
C571        C  0.00861094  0.27604494  0.49080614    -0.12300
C572        C  0.51297800  0.27841819  0.50579184    -0.12300
C573        C  0.51299751  0.25462645  0.51367486     0.10300
C574        C  0.50858387  0.22777230  0.50612037    -0.02200
C575        C  0.99874760  0.17424228  0.49131185    -0.12400
C576        C  0.50434235  0.17711956  0.50613727    -0.12400
C577        C  0.50904299  0.20345085  0.51375396     0.10500
C578        C  0.51451193  0.20642221  0.52879932    -0.10500
C579        C  0.51809067  0.23257017  0.53594440    -0.04300
C580        C  0.51762544  0.25675494  0.52887324    -0.10500
H581        H  0.00862215  0.29492491  0.48525144     0.07800
H582        H  0.51649939  0.29914008  0.51119643     0.07800
H583        H  0.99481593  0.15330832  0.48598046     0.07900
H584        H  0.50477667  0.15839718  0.51162994     0.07900
H585        H  0.98816303  0.21686510  0.44964942     0.04400
H586        H  0.52028166  0.23364052  0.54758868     0.04400
C587        C  0.26261219  0.25737238  0.47013279    -0.10500
C588        C  0.24012625  0.23219958  0.46250100    -0.04300
C589        C  0.21595947  0.20719280  0.46927049    -0.10500
C590        C  0.21342718  0.20743860  0.48440699     0.10500
C591        C  0.23678760  0.23236811  0.49247186    -0.02200
C592        C  0.26169572  0.25729914  0.48531694     0.10300
C593        C  0.28506091  0.28109416  0.49350869    -0.12300
C594        C  0.28421516  0.28047175  0.50851399    -0.12300
C595        C  0.25933220  0.25670818  0.51576325     0.10300
C596        C  0.23504700  0.23263086  0.50769957    -0.02200
C597        C  0.18847607  0.18370449  0.49167972    -0.12400
C598        C  0.18623678  0.18451084  0.50667139    -0.12400
C599        C  0.20922379  0.20872573  0.51485948     0.10500
C600        C  0.20733992  0.21022527  0.53002339    -0.10500
C601        C  0.23151662  0.23400183  0.53763818    -0.04300
C602        C  0.25768980  0.25653910  0.53089635    -0.10500
H603        H  0.30442119  0.30008766  0.48834032     0.07800
H604        H  0.30283816  0.29915476  0.51442842     0.07800
H605        H  0.17039945  0.16448544  0.48578356     0.07900
H606        H  0.16643372  0.16601290  0.51183238     0.07900
H607        H  0.24053593  0.23278408  0.45081433     0.04400
H608        H  0.23079178  0.23385845  0.54932587     0.04400
C609        C  0.22127740  0.53177937  0.46896722    -0.10500
C610        C  0.24836442  0.53763801  0.46219154    -0.04300
C611        C  0.27174771  0.53543836  0.46932821    -0.10500
C612        C  0.26882351  0.52926769  0.48439655     0.10500
C613        C  0.24169751  0.52432704  0.49164278    -0.02200
C614        C  0.21769906  0.52518968  0.48383960     0.10300
C615        C  0.19100138  0.51987114  0.49112610    -0.12300
C616        C  0.18729792  0.01292953  0.50572976    -0.12300
C617        C  0.21043496  0.01170440  0.51367313     0.10300
C618        C  0.23821549  0.01794948  0.50667179    -0.02200
C619        C  0.29214686  0.52846701  0.49249631    -0.12400
C620        C  0.28895526  0.02272056  0.50734470    -0.12400
C621        C  0.26223145  0.01732003  0.51463358     0.10500
C622        C  0.25814233  0.01059479  0.52958782    -0.10500
C623        C  0.23058279  0.00427363  0.53601527    -0.04300
C624        C  0.20650493  0.00393833  0.52841202    -0.10500
H625        H  0.17267748  0.52110379  0.48558394     0.07800
H626        H  0.16613058  0.00859418  0.51079102     0.07800
H627        H  0.31325870  0.53270102  0.48742971     0.07900
H628        H  0.30751391  0.02228526  0.51308919     0.07900
H629        H  0.25017373  0.54169417  0.45068284     0.04400
H630        H  0.22779505  0.99967831  0.54748033     0.04400
O631        O  0.46598592  0.00937076  0.98916692    -0.88000
C632        C  0.03116491  0.05738228  0.02006628     0.88100
Mg633      Mg  0.43227723  0.46145550  0.99153431     1.58100
O634        O  0.05786523  0.03578300  0.98933272    -0.87700
O635        O  0.00166363  0.03871607  0.97415666    -0.75000
C636        C  0.50859636  0.38849504  0.00834933     0.93100
O637        O  0.45966809  0.49960286  0.02319054    -0.74800
O638        O  0.48299308  0.38739550  0.01051684    -0.82300
Mg639      Mg  0.47135372  0.03909961  0.00728408     1.58000
C640        C  0.11729874  0.00036642  0.99875997     0.93000
O641        O  0.48182199  0.08320347  0.99499213    -0.80600
H642        H  0.06747327  0.03807741  0.96835695    -0.05900
C643        C  0.03798480  0.47700352  0.02372872     0.88000
O644        O  0.46114356  0.44660759  0.97778694    -0.75100
O645        O  0.01957562  0.05330634  0.00794806    -0.87900
O646        O  0.11491020  0.02444450  0.99890759    -0.80700
C647        C  0.11544291  0.10940084  0.00158433     0.93200
C648        C  0.00571043  0.10694886  0.99045159     0.93000
Mg649      Mg  0.04326127  0.45798539  0.99360236     1.58000
O650        O  0.03304986  0.41373704  0.00586430    -0.80600
O651        O  0.05608662  0.49717930  0.97748795    -0.74800
O652        O  0.09096968  0.10748573  0.99655688    -0.80700
O653        O  0.42064300  0.02477581  0.00560785    -0.82400
O654        O  0.42254445  0.38865013  0.00180639    -0.80700
C655        C  0.06095393  0.02453001  0.97803529     0.87400
O656        O  0.49445164  0.44343682  0.99186918    -0.87900
O657        O  0.04641235  0.48720459  0.01154561    -0.88000
O658        O  0.51102886  0.45509598  0.02591922    -0.75000
Mg659      Mg  0.04421147  0.07023402  0.98773010     1.58000
O660        O  0.11616374  0.08622722  0.00659905    -0.82400
H661        H  0.45829247  0.00752927  0.96797283    -0.06100
O662        O  0.45525429  0.45991549  0.01116433    -0.87700
H663        H  0.44861395  0.45884699  0.03240975    -0.05900
H664        H  0.49100459  0.43310963  0.97086739    -0.06100
C665        C  0.45408328  0.47196416  0.02261569     0.87400
C666        C  0.47434588  0.01818232  0.97679280     0.88000
C667        C  0.48257768  0.44050029  0.97986896     0.88100
H668        H  0.05369865  0.48712909  0.03270928    -0.06100
O669        O  0.05188606  0.05072901  0.02284062    -0.75100
Mg670      Mg  0.46893124  0.42468653  0.01161742     1.58000
H671        H  0.02260839  0.06570231  0.02864455    -0.06100
C672        C  0.39649816  0.49874805  0.00410890     0.93000
O673        O  0.39643768  0.41121461  0.99424125    -0.82400
C674        C  0.39762960  0.38748330  0.99795817     0.93100
O675        O  0.03029216  0.10681160  0.98733454    -0.82300
Mg676      Mg  0.08026694  0.03564555  0.00936054     1.58200
O677        O  0.39755807  0.47404691  0.00208840    -0.80700
O678        O  0.09409270  0.47359746  0.99729357    -0.82400
O679        O  0.36356948  0.15906171  0.32403666    -0.88000
C680        C  0.29702865  0.11866435  0.35510361     0.88100
Mg681      Mg  0.39964686  0.20692371  0.32518868     1.58100
O682        O  0.27227293  0.13503944  0.32220903    -0.87700
O683        O  0.32708893  0.12565656  0.31000043    -0.75000
C684        C  0.32903268  0.28559331  0.33942913     0.93100
O685        O  0.37155208  0.17345196  0.35815538    -0.74800
O686        O  0.35383273  0.28604563  0.34283470    -0.82300
Mg687      Mg  0.35750274  0.13196451  0.34303649     1.58000
C688        C  0.21846054  0.17851356  0.32521588     0.93000
O689        O  0.34521024  0.08660555  0.33094828    -0.80600
H690        H  0.26802643  0.13154398  0.30077716    -0.05900
C691        C  0.29428921  0.19891891  0.35486319     0.88000
O692        O  0.37328574  0.22232866  0.31054667    -0.75100
O693        O  0.30919931  0.12009077  0.34338689    -0.87900
O694        O  0.21780063  0.15391400  0.32911146    -0.80700
C695        C  0.21117207  0.06597808  0.33637350     0.93200
C696        C  0.32016567  0.06125448  0.32925872     0.93000
Mg697      Mg  0.29371123  0.21575124  0.32359836     1.58000
O698        O  0.30501753  0.26108929  0.33530400    -0.80600
O699        O  0.28143906  0.17421663  0.30871021    -0.74800
O700        O  0.23562262  0.06551947  0.33317486    -0.80700
O701        O  0.40850092  0.14450714  0.34192345    -0.82400
O702        O  0.41279052  0.28106822  0.33526570    -0.80700
C703        C  0.27335362  0.14605816  0.31023287     0.87400
O704        O  0.34126453  0.22798025  0.32426200    -0.87900
O705        O  0.28586363  0.18822351  0.34261811    -0.88000
O706        O  0.32188376  0.21915998  0.35755801    -0.75000
Mg707      Mg  0.28353534  0.09864601  0.32375924     1.58000
O708        O  0.21131054  0.09086654  0.33928424    -0.82400
H709        H  0.37036584  0.15478142  0.30314889    -0.06100
O710        O  0.37781009  0.21163621  0.34470669    -0.87700
H711        H  0.38581396  0.21642544  0.36592099    -0.05900
H712        H  0.34576228  0.23834726  0.30337455    -0.06100
C713        C  0.37901544  0.20141279  0.35658526     0.87400
C714        C  0.35459278  0.14694064  0.31207151     0.88000
C715        C  0.35328705  0.23034787  0.31243802     0.88100
H716        H  0.27797092  0.19025133  0.36356099    -0.06100
O717        O  0.27618941  0.12583510  0.35640298    -0.75100
Mg718      Mg  0.36562629  0.24750378  0.34436916     1.58000
H719        H  0.30464041  0.11168231  0.36450088    -0.06100
C720        C  0.43328552  0.16939738  0.33925939     0.93000
O721        O  0.43740722  0.25732675  0.32703218    -0.82400
C722        C  0.43704910  0.28155641  0.33094653     0.93100
O723        O  0.29467180  0.06018474  0.32697749    -0.82300
Mg724      Mg  0.24985117  0.14075740  0.34112381     1.58200
O725        O  0.43328339  0.19390832  0.33578364    -0.80700
O726        O  0.24347102  0.20342511  0.32319179    -0.82400
O727        O  0.13378470  0.33428986  0.65540818    -0.88000
C728        C  0.19734831  0.37654027  0.68790166     0.88100
Mg729      Mg  0.09876554  0.28637358  0.65541398     1.58100
O730        O  0.22630639  0.36004594  0.65633339    -0.87700
O731        O  0.17122128  0.36633236  0.64176133    -0.75000
C732        C  0.17008600  0.21000772  0.67302078     0.93100
O733        O  0.12393638  0.31904993  0.68936013    -0.74800
O734        O  0.14457214  0.20873466  0.67561054    -0.82300
Mg735      Mg  0.13796078  0.36064357  0.67492369     1.58000
C736        C  0.28111922  0.31802911  0.66257650     0.93000
O737        O  0.15034653  0.40659597  0.66425736    -0.80600
H738        H  0.23450206  0.36436437  0.63519828    -0.05900
C739        C  0.20124675  0.29628770  0.68851804     0.88000
O740        O  0.12727533  0.27206376  0.64154367    -0.75100
O741        O  0.18614546  0.37402789  0.67579799    -0.87900
O742        O  0.28099527  0.34243287  0.66643410    -0.80700
C743        C  0.28344658  0.43088247  0.67214283     0.93200
C744        C  0.17393002  0.43110997  0.66009368     0.93000
Mg745      Mg  0.20613452  0.28004778  0.65739612     1.58000
O746        O  0.19353137  0.23442944  0.66864697    -0.80600
O747        O  0.22010431  0.32153433  0.64273998    -0.74800
O748        O  0.25887581  0.42919634  0.66727897    -0.80700
O749        O  0.08687448  0.34657012  0.67353202    -0.82400
O750        O  0.08497930  0.21270831  0.66513199    -0.80700
C751        C  0.22764541  0.34954701  0.64445380     0.87400
O752        O  0.15811725  0.26666895  0.65627964    -0.87900
O753        O  0.21116700  0.30742306  0.67659709    -0.88000
O754        O  0.17354469  0.27545806  0.69020763    -0.75000
Mg755      Mg  0.21289003  0.39490052  0.65645632     1.58000
O756        O  0.28475156  0.40696956  0.67562199    -0.82400
H757        H  0.12833080  0.33701725  0.63426124    -0.06100
O758        O  0.11876655  0.28152182  0.67542415    -0.87700
H759        H  0.10919251  0.27582531  0.69640859    -0.05900
H760        H  0.15624061  0.25703356  0.63526082    -0.06100
C761        C  0.11654562  0.29119793  0.68735250     0.87400
C762        C  0.14352201  0.34560858  0.64349914     0.88000
C763        C  0.14742482  0.26449887  0.64407739     0.88100
H764        H  0.21631396  0.30499859  0.69779387    -0.06100
O765        O  0.21825811  0.36990050  0.69018615    -0.75100
Mg766      Mg  0.13147839  0.24650419  0.67571006     1.58000
H767        H  0.18857401  0.38377064  0.69682417    -0.06100
C768        C  0.06307836  0.32133767  0.66995372     0.93000
O769        O  0.06106149  0.23614628  0.65585105    -0.82400
C770        C  0.06112412  0.21202488  0.65989522     0.93100
O771        O  0.19922612  0.43220459  0.65715822    -0.82300
Mg772      Mg  0.24683355  0.35557976  0.67628774     1.58200
O773        O  0.06458298  0.29813225  0.66548076    -0.80700
O774        O  0.25667559  0.29336269  0.65909849    -0.82400
C775        C  0.33738966  0.33516771  0.77638492     0.30100
C776        C  0.35602674  0.32581715  0.76924033    -0.36200
C777        C  0.34798983  0.31592235  0.75487888     0.16100
C778        C  0.32346554  0.31544529  0.74789013     0.21900
C779        C  0.30410868  0.32361740  0.75521602    -0.34300
C780        C  0.31200971  0.33329505  0.76961603     0.16000
O781        O  0.34388813  0.35041964  0.78878491    -0.26300
C782        C  0.32211789  0.35807552  0.79010365     0.05800
C783        C  0.30138601  0.34738180  0.77857469    -0.31200
O784        O  0.32325739  0.31039232  0.73385222    -0.23000
C785        C  0.34766882  0.30698769  0.73188232    -0.03000
C786        C  0.36359961  0.30988491  0.74464922    -0.17500
H787        H  0.37675316  0.32837173  0.77414664     0.20500
H788        H  0.28558311  0.32465441  0.74975885     0.18900
H789        H  0.28342110  0.35272804  0.77626725     0.18800
H790        H  0.38539127  0.31062277  0.74595445     0.14700
C791        C  0.31950844  0.28904991  0.58524860     0.30100
C792        C  0.30021433  0.29623315  0.57734178    -0.36200
C793        C  0.29938732  0.29140465  0.56245190     0.16100
C794        C  0.31602377  0.27977170  0.55577723     0.21900
C795        C  0.33636037  0.27373650  0.56365628    -0.34300
C796        C  0.33734719  0.27880637  0.57859213     0.16000
O797        O  0.32239057  0.29033753  0.59935240    -0.26300
C798        C  0.34260166  0.28112486  0.60184371     0.05800
C799        C  0.35295248  0.27384692  0.58932132    -0.31200
O800        O  0.30640367  0.27034913  0.54248385    -0.23000
C801        C  0.28357224  0.27629718  0.54056892    -0.03000
C802        C  0.27901507  0.29038147  0.55254546    -0.17500
H803        H  0.28550885  0.30341457  0.58254222     0.20500
H804        H  0.34889559  0.26379040  0.55864917     0.18900
H805        H  0.36957514  0.26619222  0.58830075     0.18800
H806        H  0.25961870  0.29368840  0.55457824     0.14700
C807        C  0.50094648  0.29830453  0.55404067     0.30100
C808        C  0.47998616  0.30281456  0.56223098    -0.36200
C809        C  0.48767361  0.31092399  0.57681633     0.16100
C810        C  0.51399480  0.31411065  0.58313248     0.21900
C811        C  0.53545491  0.31048904  0.57481547    -0.34300
C812        C  0.52797646  0.30282794  0.56012298     0.16000
O813        O  0.49568738  0.28529730  0.54107150    -0.26300
C814        C  0.51991407  0.28178947  0.53856961     0.05800
C815        C  0.54103343  0.29315363  0.55001513    -0.31200
O816        O  0.51475469  0.31844776  0.59732872    -0.23000
C817        C  0.48872683  0.31860542  0.60006737    -0.03000
C818        C  0.47123629  0.31409051  0.58763348    -0.17500
H819        H  0.45820037  0.29837764  0.55778283     0.20500
H820        H  0.05574572  0.31183048  0.57962120     0.18900
H821        H  0.06064462  0.28998418  0.55161232     0.18800
H822        H  0.44861748  0.31165734  0.58680912     0.14700
C823        C  0.33032483  0.00336707  0.75107715     0.30100
C824        C  0.30881633  0.97727791  0.75846221    -0.36200
C825        C  0.31655994  0.47434996  0.77265153     0.16100
C826        C  0.34373935  0.49551959  0.77919553     0.21900
C827        C  0.36464988  0.52240410  0.77201739    -0.34300
C828        C  0.35683957  0.52539355  0.75780167     0.16000
O829        O  0.33035504  0.00759872  0.73705837    -0.26300
C830        C  0.35697584  0.03299390  0.73476153     0.05800
C831        C  0.37416407  0.54529611  0.74733301    -0.31200
O832        O  0.34933938  0.48493653  0.79116343    -0.23000
C833        C  0.32522643  0.45679628  0.79240250    -0.03000
C834        C  0.30391817  0.44942306  0.78129276    -0.17500
H835        H  0.28877689  0.95910269  0.75308585     0.20500
H836        H  0.38675608  0.53843067  0.77668327     0.18900
H837        H  0.39758688  0.56397323  0.74830888     0.18800
H838        H  0.28425015  0.42717488  0.77883527     0.14700
C839        C  0.33047814  0.03140088  0.58197910     0.30100
C840        C  0.33469450  0.04487215  0.56830411    -0.36200
C841        C  0.31315864  0.02701227  0.55758377     0.16100
C842        C  0.28950144  0.99775715  0.56018285     0.21900
C843        C  0.28526541  0.48436369  0.57384190    -0.34300
C844        C  0.30631350  0.00243696  0.58461984     0.16000
O845        O  0.34764195  0.04410490  0.59355029    -0.26300
C846        C  0.33401639  0.02332023  0.60385630     0.05800
C847        C  0.30800987  0.99692461  0.59892180    -0.31200
O848        O  0.26977075  0.48666495  0.54941002    -0.23000
C849        C  0.28036106  0.00896344  0.53966290    -0.03000
C850        C  0.30770402  0.03461610  0.54415898    -0.17500
H851        H  0.35283644  0.06810117  0.56632220     0.20500
H852        H  0.26592822  0.46193650  0.57608502     0.18900
H853        H  0.29328077  0.47629819  0.60484158     0.18800
H854        H  0.31924562  0.05705622  0.53926630     0.14700
C855        C  0.50981436  0.14193566  0.58116697     0.30100
C856        C  0.53148904  0.16683082  0.57316399    -0.36200
C857        C  0.52371905  0.16789449  0.55873303     0.16100
C858        C  0.49622872  0.14631182  0.55258583     0.21900
C859        C  0.47508632  0.12068366  0.56043394    -0.34300
C860        C  0.48305067  0.11940125  0.57483319     0.16000
O861        O  0.51029481  0.13891461  0.59527862    -0.26300
C862        C  0.48375923  0.11370616  0.59799939     0.05800
C863        C  0.46607794  0.10048716  0.58564375    -0.31200
O864        O  0.49079342  0.15536948  0.54011376    -0.23000
C865        C  0.51537862  0.18289039  0.53811605    -0.03000
C866        C  0.53685802  0.19129114  0.54924990    -0.17500
H867        H  0.55190311  0.18536051  0.57813320     0.20500
H868        H  0.45287726  0.10423563  0.55600604     0.18900
H869        H  0.44276979  0.08149235  0.58494884     0.18800
H870        H  0.55695626  0.21356062  0.55113414     0.14700
C871        C  0.01184640  0.37643045  0.78049362     0.30100
C872        C  0.99416408  0.37983870  0.76965480    -0.36200
C873        C  0.99689756  0.37040007  0.75568440     0.16100
C874        C  0.01592040  0.35868109  0.75251712     0.21900
C875        C  0.03268480  0.35423180  0.76344097    -0.34300
C876        C  0.02946533  0.36307834  0.77745653     0.16000
O877        O  0.01767370  0.38931874  0.79347452    -0.26300
C878        C  0.03888975  0.38368439  0.79904205     0.05800
C879        C  0.04602650  0.36630537  0.78960717    -0.31200
O880        O  0.01572502  0.35225516  0.73864094    -0.23000
C881        C  0.49608683  0.35974025  0.73281190    -0.03000
C882        C  0.48353060  0.37090673  0.74296759    -0.17500
H883        H  0.48049105  0.39061153  0.77180303     0.20500
H884        H  0.04808392  0.34552239  0.76109972     0.18900
H885        H  0.06537848  0.36247151  0.79042996     0.18800
H886        H  0.46634290  0.37760478  0.74125416     0.14700
C887        C  0.04873245  0.15696939  0.77408827     0.30100
C888        C  0.52179179  0.13527773  0.76689392    -0.36200
C889        C  0.52048497  0.13917801  0.75196085     0.16100
C890        C  0.04403222  0.16278821  0.74453755     0.21900
C891        C  0.07052652  0.18506265  0.75180249    -0.34300
C892        C  0.07175949  0.18122438  0.76675111     0.16000
O893        O  0.05701924  0.15466407  0.78738267    -0.26300
C894        C  0.08569387  0.17797911  0.78872634     0.05800
C895        C  0.09556729  0.19563211  0.77624279    -0.31200
O896        O  0.03883179  0.16081720  0.73045919    -0.23000
C897        C  0.51140937  0.13566651  0.72882891    -0.03000
C898        C  0.49891097  0.12148638  0.74188745    -0.17500
H899        H  0.50383050  0.11567681  0.77239817     0.20500
H900        H  0.08954652  0.20327082  0.74609094     0.18900
H901        H  0.11856012  0.21379272  0.77383147     0.18800
H902        H  0.47717277  0.10083843  0.74366355     0.14700
C903        C  0.15855212  0.50487843  0.75332334     0.30100
C904        C  0.15557079  0.51493297  0.76707195    -0.36200
C905        C  0.15429582  0.49658896  0.77864921     0.16100
C906        C  0.15619472  0.47031808  0.77678040     0.21900
C907        C  0.15936909  0.46033970  0.76298525    -0.34300
C908        C  0.16003846  0.47839559  0.75135914     0.16000
O909        O  0.15935222  0.51825355  0.74109344    -0.26300
C910        C  0.16093264  0.00003673  0.73102422     0.05800
C911        C  0.16125637  0.47462745  0.73675971    -0.31200
O912        O  0.14867107  0.45364944  0.78851813    -0.23000
C913        C  0.14128641  0.46891941  0.79807879    -0.03000
C914        C  0.14529481  0.49638615  0.79254659    -0.17500
H915        H  0.15283676  0.53485823  0.76855095     0.20500
H916        H  0.15927447  0.43890948  0.76136633     0.18900
H917        H  0.16315323  0.45672492  0.73108624     0.18800
H918        H  0.13683733  0.51072238  0.79704689     0.14700
C919        C  0.21242434  0.14405563  0.75535335     0.30100
C920        C  0.20174918  0.13286448  0.76921858    -0.36200
C921        C  0.19773017  0.15268837  0.77857430     0.16100
C922        C  0.20459676  0.18184777  0.77460365     0.21900
C923        C  0.21583969  0.19323096  0.76085470    -0.34300
C924        C  0.21891686  0.17309684  0.75137027     0.16000
O925        O  0.21209593  0.12736403  0.74426699    -0.26300
C926        C  0.21801538  0.14565969  0.73299228     0.05800
C927        C  0.22263654  0.17452925  0.73677739    -0.31200
O928        O  0.19350633  0.19410905  0.78364582    -0.23000
C929        C  0.17921937  0.17277969  0.79361228    -0.03000
C930        C  0.18139049  0.14652584  0.79106365    -0.17500
H931        H  0.19414101  0.10925157  0.77199867     0.20500
H932        H  0.21880193  0.21503246  0.75731001     0.18900
H933        H  0.22506362  0.19261221  0.72969235     0.18800
H934        H  0.16864883  0.12449610  0.79626358     0.14700
C935        C  0.15436009  0.00473788  0.55273961     0.30100
C936        C  0.14568078  0.02070582  0.56237767    -0.36200
C937        C  0.13652081  0.00792456  0.57612162     0.16100
C938        C  0.13627753  0.98144578  0.58025865     0.21900
C939        C  0.14323937  0.46454279  0.57035454    -0.34300
C940        C  0.15200587  0.97711072  0.55653778     0.16000
O941        O  0.17063592  0.01619890  0.54090998    -0.26300
C942        C  0.17833582  0.99539256  0.53688448     0.05800
C943        C  0.16646472  0.47020042  0.54604688    -0.31200
O944        O  0.13379554  0.97744211  0.59438358    -0.23000
C945        C  0.13157446  0.00125653  0.59930857    -0.03000
C946        C  0.13263941  0.02057659  0.58834060    -0.17500
H947        H  0.14892425  0.04315962  0.55987420     0.20500
H948        H  0.14475215  0.44466901  0.57360420     0.18900
H949        H  0.17251740  0.45229125  0.54636657     0.18800
H950        H  0.13455052  0.04297201  0.58943699     0.14700
C951        C  0.17336928  0.14104883  0.58108099     0.30100
C952        C  0.17578423  0.13497053  0.56649871    -0.36200
C953        C  0.17322926  0.15446290  0.55652608     0.16100
C954        C  0.16783959  0.17781182  0.56067525     0.21900
C955        C  0.16473649  0.18342229  0.57526368    -0.34300
C956        C  0.16838837  0.16464169  0.58523854     0.16000
O957        O  0.17740761  0.12717210  0.59214931    -0.26300
C958        C  0.17561881  0.14240443  0.60357914     0.05800
C959        C  0.17005056  0.16604557  0.59994700    -0.31200
O960        O  0.17325922  0.19740107  0.55024212    -0.23000
C961        C  0.18291243  0.18716500  0.53926164    -0.03000
C962        C  0.18227325  0.15978238  0.54247852    -0.17500
H963        H  0.18165669  0.11778087  0.56323638     0.20500
H964        H  0.16251824  0.20291497  0.57865136     0.18900
H965        H  0.16710949  0.18154152  0.60708048     0.18800
H966        H  0.19319932  0.14924064  0.53652023     0.14700
C967        C  0.00020125  0.34900518  0.92079913     0.30100
C968        C  0.00524940  0.37603564  0.91398942    -0.36200
C969        C  0.01476617  0.37950257  0.89955279     0.16100
C970        C  0.01886170  0.35778821  0.89222512     0.21900
C971        C  0.01305985  0.33041443  0.89892048    -0.34300
C972        C  0.00385945  0.32709743  0.91339175     0.16000
O973        O  0.49571892  0.34324511  0.93474737    -0.26300
C974        C  0.99646860  0.31725114  0.93632036     0.05800
C975        C  0.00124914  0.30613937  0.92333492    -0.31200
O976        O  0.03289295  0.36793671  0.87976479    -0.23000
C977        C  0.03777976  0.39652883  0.87898387    -0.03000
C978        C  0.02657284  0.40469179  0.89098066    -0.17500
H979        H  0.50416250  0.39418564  0.91986255     0.20500
H980        H  0.01779265  0.31397288  0.89358554     0.18900
H981        H  0.00497853  0.28686019  0.92168235     0.18800
H982        H  0.03012891  0.42722464  0.89378127     0.14700
C983        C  0.05228074  0.17140807  0.88905141     0.30100
C984        C  0.04058245  0.16142382  0.90289716    -0.36200
C985        C  0.04465509  0.18433888  0.91285304     0.16100
C986        C  0.05863856  0.21500793  0.90938155     0.21900
C987        C  0.07019541  0.22500439  0.89546082    -0.34300
C988        C  0.06653005  0.20205414  0.88551263     0.16000
O989        O  0.05576969  0.15454844  0.87910674    -0.26300
C990        C  0.07247573  0.17434454  0.86891408     0.05800
C991        C  0.07939273  0.20427600  0.87227808    -0.31200
O992        O  0.05998587  0.23247109  0.92044040    -0.23000
C993        C  0.04704755  0.21271707  0.93118901    -0.03000
C994        C  0.03725900  0.18247372  0.92705568    -0.17500
H995        H  0.03051776  0.13757771  0.90592892     0.20500
H996        H  0.08234365  0.24911453  0.89275534     0.18900
H997        H  0.09578271  0.22515556  0.86696888     0.18800
H998        H  0.02545840  0.16195704  0.93347429     0.14700
C999        C  0.34999024  0.35386455  0.89063515     0.30100
C1000       C  0.35940335  0.35827955  0.90512384    -0.36200
C1001       C  0.33744043  0.33905534  0.91507053     0.16100
C1002       C  0.30856971  0.31612161  0.91099683     0.21900
C1003       C  0.29926254  0.31141351  0.89647280    -0.34300
C1004       C  0.32093431  0.33134393  0.88653219     0.16000
O1005       O  0.36415393  0.37380429  0.88036240    -0.26300
C1006       C  0.34399319  0.36460241  0.86950901     0.05800
C1007       C  0.31695490  0.33762191  0.87265559    -0.31200
O1008       O  0.29145700  0.30131689  0.92212958    -0.23000
C1009       C  0.30937106  0.31544288  0.93349353    -0.03000
C1010       C  0.33822985  0.33918760  0.92974830    -0.17500
H1011       H  0.38145401  0.37710032  0.90852300     0.20500
H1012       H  0.27605195  0.29475838  0.89327253     0.18900
H1013       H  0.29543217  0.32785574  0.86678475     0.18800
H1014       H  0.35723042  0.35383888  0.93680022     0.14700
C1015       C  0.18566445  0.15661726  0.88796589     0.30100
C1016       C  0.21201961  0.17256755  0.89663461    -0.36200
C1017       C  0.20881769  0.16449034  0.91124794     0.16100
C1018       C  0.18151239  0.14236585  0.91706614     0.21900
C1019       C  0.15563429  0.12524499  0.90823494    -0.34300
C1020       C  0.15889982  0.13317953  0.89358741     0.16000
O1021       O  0.18153551  0.16518447  0.87507605    -0.26300
C1022       C  0.15182148  0.14663690  0.87223278     0.05800
C1023       C  0.13699201  0.12576583  0.88329011    -0.31200
O1024       O  0.18181408  0.14315730  0.93134660    -0.23000
C1025       C  0.20991366  0.16574111  0.93471611    -0.03000
C1026       C  0.22773457  0.17931328  0.92258491    -0.17500
H1027       H  0.23269271  0.19203877  0.89261088     0.20500
H1028       H  0.13362706  0.10896195  0.91270578     0.18900
H1029       H  0.11252323  0.11075945  0.88453645     0.18800
H1030       H  0.25008123  0.19981975  0.92217150     0.14700
C1031       C  0.17559792  0.50480642  0.89155506     0.30100
C1032       C  0.20003888  0.50643634  0.89963963    -0.36200
C1033       C  0.20413656  0.51907215  0.91357048     0.16100
C1034       C  0.18560725  0.52960450  0.91921005     0.21900
C1035       C  0.16193141  0.52907136  0.91092181    -0.34300
C1036       C  0.15769369  0.51624879  0.89701770     0.16000
O1037       O  0.16381246  0.48825198  0.87967809    -0.26300
C1038       C  0.13816644  0.48931164  0.87737273     0.05800
C1039       C  0.13355721  0.50681162  0.88775940    -0.31200
O1040       O  0.18994046  0.03533756  0.93320948    -0.23000
C1041       C  0.21174460  0.52867019  0.93656392    -0.03000
C1042       C  0.22163687  0.51881487  0.92469831    -0.17500
H1043       H  0.21312765  0.49597892  0.89585500     0.20500
H1044       H  0.14613499  0.03559883  0.91545236     0.18900
H1045       H  0.11311824  0.50853716  0.88936838     0.18800
H1046       H  0.23707141  0.50957631  0.92460226     0.14700
C1047       C  0.32930294  0.47656162  0.91825543     0.30100
C1048       C  0.35285941  0.48290407  0.90838514    -0.36200
C1049       C  0.34369454  0.47440059  0.89395265     0.16100
C1050       C  0.31343005  0.46032819  0.88954247     0.21900
C1051       C  0.28997818  0.45446188  0.89934590    -0.34300
C1052       C  0.29914075  0.46294951  0.91371896     0.16000
O1053       O  0.33247539  0.48244662  0.93229103    -0.26300
C1054       C  0.30385228  0.47231006  0.93676118     0.05800
C1055       C  0.28230891  0.45992738  0.92562395    -0.31200
O1056       O  0.30941182  0.44930514  0.87626511    -0.23000
C1057       C  0.33745245  0.45653385  0.87192141    -0.03000
C1058       C  0.35971616  0.47282587  0.88247546    -0.17500
H1059       H  0.37656217  0.99277306  0.91179514     0.20500
H1060       H  0.26605481  0.44269266  0.89612613     0.18900
H1061       H  0.25778540  0.45103278  0.92615212     0.18800
H1062       H  0.38329514  0.47775425  0.88257625     0.14700
C1063       C  0.47858758  0.30790588  0.08539487     0.30100
C1064       C  0.48366379  0.33167667  0.09503212    -0.36200
C1065       C  0.47299856  0.32281710  0.10911218     0.16100
C1066       C  0.45807395  0.29259151  0.11342440     0.21900
C1067       C  0.45387210  0.26889239  0.10389443    -0.34300
C1068       C  0.46453072  0.27777436  0.08980901     0.16000
O1069       O  0.48539821  0.31085301  0.07155863    -0.26300
C1070       C  0.47561799  0.28219633  0.06703336     0.05800
C1071       C  0.46255199  0.26070509  0.07795859    -0.31200
O1072       O  0.44450930  0.28891075  0.12600617    -0.23000
C1073       C  0.45111671  0.31715492  0.12993598    -0.03000
C1074       C  0.46939499  0.33916517  0.11991579    -0.17500
H1075       H  0.99377155  0.35527731  0.09159611     0.20500
H1076       H  0.44139711  0.24500136  0.10697293     0.18900
H1077       H  0.45324560  0.23609849  0.07727866     0.18800
H1078       H  0.47458900  0.36282869  0.11950475     0.14700
C1079       C  0.31194640  0.32088109  0.08886191     0.30100
C1080       C  0.30693501  0.30988826  0.10308529    -0.36200
C1081       C  0.33156781  0.32533599  0.11282913     0.16100
C1082       C  0.35905892  0.35017987  0.10881038     0.21900
C1083       C  0.36398075  0.36129919  0.09462629    -0.34300
C1084       C  0.33955771  0.34557060  0.08483859     0.16000
O1085       O  0.29359719  0.30731005  0.07773052    -0.26300
C1086       C  0.30950686  0.32328401  0.06633011     0.05800
C1087       C  0.33837301  0.34749797  0.07014155    -0.31200
O1088       O  0.38055965  0.35795659  0.11871925    -0.23000
C1089       C  0.36707617  0.33800109  0.12936173    -0.03000
C1090       C  0.33631873  0.31723581  0.12627890    -0.17500
H1091       H  0.28607207  0.28929585  0.10606157     0.20500
H1092       H  0.38618351  0.37945784  0.09119720     0.18900
H1093       H  0.35668947  0.36259991  0.06305944     0.18800
H1094       H  0.32117965  0.29651879  0.13204914     0.14700
C1095       C  0.33126370  0.50629725  0.42234483     0.30100
C1096       C  0.32446468  0.49888813  0.43698209    -0.36200
C1097       C  0.31700681  0.51801468  0.44513159     0.16100
C1098       C  0.31673963  0.54300374  0.43926280     0.21900
C1099       C  0.32388414  0.55063051  0.42466557    -0.34300
C1100       C  0.33080467  0.53119245  0.41646008     0.16000
O1101       O  0.33500315  0.48929387  0.41250780    -0.26300
C1102       C  0.33686935  0.50322759  0.40006660     0.05800
C1103       C  0.33443206  0.52955394  0.40189498    -0.31200
O1104       O  0.30439060  0.55470047  0.44797797    -0.23000
C1105       C  0.29640400  0.53715523  0.45969425    -0.03000
C1106       C  0.30409807  0.51404890  0.45851392    -0.17500
H1107       H  0.32294667  0.47832618  0.44144431     0.20500
H1108       H  0.32187690  0.56907528  0.41978956     0.18900
H1109       H  0.33331615  0.54406611  0.39363774     0.18800
H1110       H  0.29717824  0.49459589  0.46551822     0.14700
C1111       C  0.30412612  0.32534480  0.41775317     0.30100
C1112       C  0.30860667  0.30386588  0.42533641    -0.36200
C1113       C  0.30208055  0.30155944  0.44007627     0.16100
C1114       C  0.29131049  0.31881906  0.44690430     0.21900
C1115       C  0.28803146  0.34131377  0.43939961    -0.34300
C1116       C  0.29485504  0.34381902  0.42461835     0.16000
O1117       O  0.30687198  0.32960920  0.40374185    -0.26300
C1118       C  0.29969178  0.35143275  0.40151292     0.05800
C1119       C  0.29226621  0.36141858  0.41414047    -0.31200
O1120       O  0.28005007  0.30802034  0.45976372    -0.23000
C1121       C  0.28402074  0.28380574  0.46127706    -0.03000
C1122       C  0.29852440  0.27944576  0.44946006    -0.17500
H1123       H  0.31498218  0.28867789  0.41993643     0.20500
H1124       H  0.27877648  0.35441889  0.44448593     0.18900
H1125       H  0.28556110  0.37874310  0.41536385     0.18800
H1126       H  0.30073573  0.25948000  0.44705560     0.14700
C1127       C  0.31988544  0.34612522  0.24794202     0.30100
C1128       C  0.32829929  0.35555483  0.23362354    -0.36200
C1129       C  0.33556373  0.33690326  0.22501229     0.16100
C1130       C  0.33407677  0.31052537  0.23016429     0.21900
C1131       C  0.32557754  0.30105781  0.24445699    -0.34300
C1132       C  0.31890370  0.31999801  0.25313515     0.16000
O1133       O  0.31569210  0.36201810  0.25816774    -0.26300
C1134       C  0.31217542  0.34614759  0.27015013     0.05800
C1135       C  0.31400266  0.31968964  0.26766664    -0.31200
O1136       O  0.34591876  0.29892638  0.22114534    -0.23000
C1137       C  0.35536417  0.31792125  0.20996089    -0.03000
C1138       C  0.34930509  0.34203212  0.21178296    -0.17500
H1139       H  0.33095451  0.37703270  0.22976555     0.20500
H1140       H  0.32624207  0.28143354  0.24878298     0.18900
H1141       H  0.31381886  0.30376939  0.27550964     0.18800
H1142       H  0.35743406  0.36238601  0.20528227     0.14700
C1143       C  0.99296302  0.28469846  0.43791943     0.30100
C1144       C  0.98216684  0.28485674  0.42392228    -0.36200
C1145       C  0.00245906  0.30863366  0.41490145     0.16100
C1146       C  0.03127178  0.33085314  0.41944378     0.21900
C1147       C  0.04197347  0.33079846  0.43345982    -0.34300
C1148       C  0.02174673  0.30694401  0.44246078     0.16000
O1149       O  0.97947073  0.26239596  0.44731674    -0.26300
C1150       C  0.99958891  0.27030930  0.45817479     0.05800
C1151       C  0.02631755  0.29809375  0.45572822    -0.31200
O1152       O  0.04671995  0.35064244  0.40923335    -0.23000
C1153       C  0.02773725  0.34104947  0.39790352    -0.03000
C1154       C  0.99976841  0.31487974  0.40080299    -0.17500
H1155       H  0.45996803  0.26693077  0.42014098     0.20500
H1156       H  0.06490390  0.34763685  0.43694313     0.18900
H1157       H  0.04747333  0.30814805  0.46189935     0.18800
H1158       H  0.98025255  0.30255237  0.39365551     0.14700
C1159       C  0.13164222  0.49639083  0.42206925     0.30100
C1160       C  0.13329889  0.48634612  0.43593638    -0.36200
C1161       C  0.15786396  0.50724103  0.44462841     0.16100
C1162       C  0.17933062  0.53605180  0.43996093     0.21900
C1163       C  0.17728318  0.54634514  0.42621239    -0.34300
C1164       C  0.15275451  0.52544743  0.41751704     0.16000
O1165       O  0.11338683  0.47909384  0.41156100    -0.26300
C1166       C  0.12267660  0.49731064  0.40013897     0.05800
C1167       C  0.14697807  0.52654350  0.40324431    -0.31200
O1168       O  0.20309372  0.54975223  0.44876162    -0.23000
C1169       C  0.19670986  0.52979159  0.45936769    -0.03000
C1170       C  0.16871062  0.50293864  0.45736107    -0.17500
H1171       H  0.11783289  0.46307369  0.43932366     0.20500
H1172       H  0.19488173  0.06824211  0.42218503     0.18900
H1173       H  0.16038535  0.54479461  0.39578552     0.18800
H1174       H  0.15967129  0.48188999  0.46341002     0.14700
C1175       C  0.49834323  0.32235732  0.25057615     0.30100
C1176       C  0.47279834  0.29978348  0.24293968    -0.36200
C1177       C  0.46879274  0.30731203  0.22887902     0.16100
C1178       C  0.48876826  0.33504470  0.22264982     0.21900
C1179       C  0.51482984  0.35723368  0.23013257    -0.34300
C1180       C  0.01859538  0.34988150  0.24425906     0.16000
O1181       O  0.00313654  0.32241324  0.26456773    -0.26300
C1182       C  0.02676157  0.35030386  0.26726580     0.05800
C1183       C  0.03751677  0.36820940  0.25497758    -0.31200
O1184       O  0.47766051  0.33972188  0.21063002    -0.23000
C1185       C  0.45029574  0.31463387  0.20904420    -0.03000
C1186       C  0.44377688  0.29359465  0.22004159    -0.17500
H1187       H  0.45568611  0.27900353  0.24806250     0.20500
H1188       H  0.52952578  0.37980649  0.22574832     0.18900
H1189       H  0.05450149  0.39234487  0.25433315     0.18800
H1190       H  0.42206907  0.27319198  0.22220978     0.14700
C1191       C  0.52271086  0.15326405  0.07815114     0.30100
C1192       C  0.51689911  0.12700766  0.08593906    -0.36200
C1193       C  0.50810103  0.12611553  0.10039703     0.16100
C1194       C  0.50526386  0.14945005  0.10683712     0.21900
C1195       C  0.51219423  0.17617536  0.09921511    -0.34300
C1196       C  0.52075414  0.17697286  0.08474744     0.16000
O1197       O  0.02608330  0.15660454  0.06399987    -0.26300
C1198       C  0.52640992  0.18289833  0.06150471     0.05800
C1199       C  0.52353235  0.19660538  0.07408624    -0.31200
O1200       O  0.49117775  0.14144481  0.11941646    -0.23000
C1201       C  0.48509290  0.11263116  0.12120766    -0.03000
C1202       C  0.49567998  0.10226124  0.10974899    -0.17500
H1203       H  0.01668651  0.10749718  0.08076359     0.20500
H1204       H  0.50853581  0.19394809  0.10385138     0.18900
H1205       H  0.52076873  0.21661423  0.07505003     0.18800
H1206       H  0.49134052  0.07913992  0.10777263     0.14700
C1207       C  0.36555444  0.99297290  0.10644538     0.30100
C1208       C  0.36176210  0.97970106  0.09270000    -0.36200
C1209       C  0.33624081  0.97569412  0.08475624     0.16100
C1210       C  0.31570909  0.98403513  0.09002750     0.21900
C1211       C  0.31887392  0.99624486  0.10398906    -0.34300
C1212       C  0.34453677  0.00044951  0.11190615     0.16000
O1213       O  0.39084467  0.00450607  0.11427429    -0.26300
C1214       C  0.38594904  0.01917228  0.12505357     0.05800
C1215       C  0.35731913  0.01714172  0.12418137    -0.31200
O1216       O  0.29717267  0.98395329  0.07992907    -0.23000
C1217       C  0.30572528  0.97522881  0.06806301    -0.03000
C1218       C  0.32964019  0.96931417  0.07048410    -0.17500
H1219       H  0.37910226  0.97557094  0.08799643     0.20500
H1220       H  0.30403411  0.00460963  0.10787705     0.18900
H1221       H  0.34911146  0.02984055  0.13045967     0.18800
H1222       H  0.34275422  0.96483359  0.06256346     0.14700
C1223       C  0.37365995  0.01223632  0.22094920     0.30100
C1224       C  0.37212092  0.99023755  0.23071427    -0.36200
C1225       C  0.36479357  0.99341540  0.24500928     0.16100
C1226       C  0.35951608  0.01669500  0.24943891     0.21900
C1227       C  0.35991491  0.03790691  0.23958961    -0.34300
C1228       C  0.36681741  0.03449444  0.22528772     0.16000
O1229       O  0.38571203  0.01730149  0.20790295    -0.26300
C1230       C  0.38605580  0.04282637  0.20370209     0.05800
C1231       C  0.37364468  0.05382239  0.21402445    -0.31200
O1232       O  0.35487508  0.01649022  0.26345387    -0.23000
C1233       C  0.35691790  0.49254330  0.26808757    -0.03000
C1234       C  0.36281611  0.47720939  0.25704827    -0.17500
H1235       H  0.37796198  0.97295434  0.22759168     0.20500
H1236       H  0.35648405  0.05667379  0.24296666     0.18900
H1237       H  0.37458565  0.07585799  0.21416851     0.18800
H1238       H  0.36523662  0.45699792  0.25781449     0.14700
C1239       C  0.16232450  0.17291687  0.10885381     0.30100
C1240       C  0.15210161  0.16505280  0.09456052    -0.36200
C1241       C  0.17470755  0.17789299  0.08398967     0.16100
C1242       C  0.20503220  0.19831943  0.08723680     0.21900
C1243       C  0.21507405  0.20716539  0.10145131    -0.34300
C1244       C  0.19271117  0.19339685  0.11209107     0.16000
O1245       O  0.14746662  0.15622397  0.11998427    -0.26300
C1246       C  0.16850917  0.16526454  0.13040679     0.05800
C1247       C  0.19671833  0.18954697  0.12626233    -0.31200
O1248       O  0.22268758  0.20591813  0.07584756    -0.23000
C1249       C  0.20356036  0.18980776  0.06518945    -0.03000
C1250       C  0.17333713  0.17189695  0.06958067    -0.17500
H1251       H  0.12886460  0.14738744  0.09198148     0.20500
H1252       H  0.23918019  0.22140547  0.10409553     0.18900
H1253       H  0.21856501  0.19746909  0.13165506     0.18800
H1254       H  0.15335790  0.15700439  0.06310156     0.14700
C1255       C  0.18441674  0.04277305  0.08465486     0.30100
C1256       C  0.16053766  0.04175737  0.09299566    -0.36200
C1257       C  0.16775331  0.05162238  0.10745904     0.16100
C1258       C  0.19658588  0.06225954  0.11330435     0.21900
C1259       C  0.22036963  0.06302849  0.10500791    -0.34300
C1260       C  0.21309837  0.05293416  0.09060069     0.16000
O1261       O  0.18282214  0.03457353  0.07090973    -0.26300
C1262       C  0.21092819  0.03950142  0.06799589     0.05800
C1263       C  0.23062317  0.05100048  0.07989349    -0.31200
O1264       O  0.19948430  0.07446694  0.12632365    -0.23000
C1265       C  0.17201149  0.07134025  0.12907259    -0.03000
C1266       C  0.15133317  0.05681096  0.11768187    -0.17500
H1267       H  0.13806558  0.03446469  0.08843991     0.20500
H1268       H  0.24329301  0.07188275  0.10934341     0.18900
H1269       H  0.25434077  0.05650494  0.08062876     0.18800
H1270       H  0.12889204  0.05457102  0.11630296     0.14700
C1271       C  0.15129645  0.03182652  0.25325626     0.30100
C1272       C  0.17743123  0.05184803  0.24542777    -0.36200
C1273       C  0.17273680  0.05493940  0.23078117     0.16100
C1274       C  0.14420934  0.03968175  0.22426734     0.21900
C1275       C  0.11811961  0.01905553  0.23203309    -0.34300
C1276       C  0.12285804  0.01590763  0.24669424     0.16000
O1277       O  0.15047761  0.52582875  0.26711262    -0.26300
C1278       C  0.12110200  0.50568161  0.26950798     0.05800
C1279       C  0.10284667  0.99868722  0.25716692    -0.31200
O1280       O  0.14416776  0.05030407  0.21130443    -0.23000
C1281       C  0.17307641  0.07249333  0.20939391    -0.03000
C1282       C  0.19192910  0.07574897  0.22109877    -0.17500
H1283       H  0.19971704  0.06503128  0.25053317     0.20500
H1284       H  0.09547095  0.00747432  0.22717223     0.18900
H1285       H  0.07855380  0.98253276  0.25600246     0.18800
H1286       H  0.21507915  0.09425159  0.22313439     0.14700
C1287       C  0.98091886  0.12780600  0.41589063     0.30100
C1288       C  0.96173396  0.13322402  0.42493518    -0.36200
C1289       C  0.97202655  0.14212591  0.43917736     0.16100
C1290       C  0.99950290  0.14571624  0.44422767     0.21900
C1291       C  0.01788672  0.13864200  0.43539269    -0.34300
C1292       C  0.00750822  0.12960819  0.42114971     0.16000
O1293       O  0.97908580  0.12588389  0.40166851    -0.26300
C1294       C  0.00449936  0.12577166  0.39774210     0.05800
C1295       C  0.02270491  0.12748693  0.40947530    -0.31200
O1296       O  0.00833668  0.16150050  0.45648983    -0.23000
C1297       C  0.98603423  0.16772695  0.45948122    -0.03000
C1298       C  0.96255796  0.15545659  0.44919055    -0.17500
H1299       H  0.44180127  0.13364716  0.42076808     0.20500
H1300       H  0.04030200  0.14303513  0.43889449     0.18900
H1301       H  0.04583656  0.13110663  0.40928867     0.18800
H1302       H  0.44393019  0.16031071  0.44802247     0.14700
C1303       C  0.16304451  0.17758703  0.44219642     0.30100
C1304       C  0.14378819  0.18222826  0.43287824    -0.36200
C1305       C  0.14804672  0.17964521  0.41814812     0.16100
C1306       C  0.16949535  0.17263418  0.41283418     0.21900
C1307       C  0.18778569  0.16657897  0.42217630    -0.34300
C1308       C  0.18356923  0.16919189  0.43696706     0.16000
O1309       O  0.16849815  0.18671841  0.45576811    -0.26300
C1310       C  0.19271763  0.18409141  0.45940423     0.05800
C1311       C  0.20205974  0.17187771  0.44823558    -0.31200
O1312       O  0.17068277  0.17319090  0.39860996    -0.23000
C1313       C  0.14957125  0.18054242  0.39485434    -0.03000
C1314       C  0.13475543  0.18467358  0.40656587    -0.17500
H1315       H  0.12835550  0.18984929  0.43678041     0.20500
H1316       H  0.20546999  0.16214035  0.41819732     0.18900
H1317       H  0.22358866  0.17188008  0.44755663     0.18800
H1318       H  0.11640825  0.19010206  0.40649766     0.14700
C1319       C  0.48461438  0.15986694  0.22051924     0.30100
C1320       C  0.97666996  0.16854958  0.23357863    -0.36200
C1321       C  0.99006945  0.16477160  0.24612646     0.16100
C1322       C  0.51064282  0.15416256  0.24569669     0.21900
C1323       C  0.51904841  0.14610407  0.23267887    -0.34300
C1324       C  0.50518928  0.14925331  0.22018946     0.16000
O1325       O  0.46923696  0.15433344  0.20831324    -0.26300
C1326       C  0.47951728  0.13952347  0.20002937     0.05800
C1327       C  0.50292628  0.13694407  0.20678546    -0.31200
O1328       O  0.52037987  0.15219383  0.25857192    -0.23000
C1329       C  0.00553724  0.16107687  0.26751616    -0.03000
C1330       C  0.98620866  0.16919887  0.26039767    -0.17500
H1331       H  0.95944423  0.17549631  0.23402020     0.20500
H1332       H  0.53400372  0.13632500  0.23240878     0.18900
H1333       H  0.51167928  0.12193764  0.20361649     0.18800
H1334       H  0.97267651  0.17847398  0.26497012     0.14700
C1335       C  0.16872890  0.19638461  0.22226009     0.30100
C1336       C  0.14789283  0.20330463  0.22908234    -0.36200
C1337       C  0.15476479  0.21377530  0.24343380     0.16100
C1338       C  0.18043551  0.21722023  0.25058223     0.21900
C1339       C  0.20178949  0.21136946  0.24361171    -0.34300
C1340       C  0.19487553  0.20083513  0.22930807     0.16000
O1341       O  0.16371662  0.18071591  0.21007382    -0.26300
C1342       C  0.18707605  0.17527430  0.20921652     0.05800
C1343       C  0.20734091  0.18769841  0.22083742    -0.31200
O1344       O  0.17946916  0.22143901  0.26457546    -0.23000
C1345       C  0.15307938  0.22118514  0.26647594    -0.03000
C1346       C  0.13694699  0.21688932  0.25363054    -0.17500
H1347       H  0.12642682  0.19821783  0.22400659     0.20500
H1348       H  0.22099853  0.21224869  0.24935308     0.18900
H1349       H  0.22617050  0.18392403  0.22357571     0.18800
H1350       H  0.11370208  0.21256898  0.25229118     0.14700
O1351       O  0.07014943  0.68347803  0.35730147    -0.88000
C1352       C  0.10394745  0.63148421  0.33822913     0.88100
Mg1353     Mg  0.02420274  0.67649038  0.35442595     1.58100
O1354       O  0.13667697  0.70729254  0.32556642    -0.87700
O1355       O  0.11900470  0.71859414  0.35691362    -0.75000
C1356       C  0.01510920  0.66755023  0.28269322     0.93100
O1357       O  0.03200901  0.61256308  0.34715596    -0.74800
O1358       O  0.99615190  0.66049169  0.29305655    -0.82300
Mg1359     Mg  0.07287625  0.64293433  0.36189572     1.58000
C1360       C  0.13869648  0.71617719  0.28076497     0.93000
O1361       O  0.11016107  0.66815614  0.37839821    -0.80600
H1362       H  0.15923170  0.75273646  0.32895921    -0.05900
C1363       C  0.06281698  0.64024190  0.30350790     0.88000
O1364       O  0.04243052  0.71597279  0.33809038    -0.75100
O1365       O  0.10497398  0.65342403  0.34480292    -0.87900
O1366       O  0.15059347  0.70919488  0.29113263    -0.80700
C1367       C  0.18956703  0.67921872  0.32496889     0.93200
C1368       C  0.13875265  0.67894550  0.38003189     0.93000
Mg1369     Mg  0.08130581  0.70680241  0.30089691     1.58000
O1370       O  0.04376087  0.68045714  0.28483125    -0.80600
O1371       O  0.12230187  0.73768739  0.31563801    -0.74800
O1372       O  0.17823013  0.68045228  0.33710358    -0.80700
O1373       O  0.04121809  0.63208679  0.38047201    -0.82400
O1374       O  0.47367501  0.66830270  0.32643887    -0.80700
C1375       C  0.14048630  0.73330198  0.32351923     0.87400
O1376       O  0.04851272  0.69684317  0.31802005    -0.87900
O1377       O  0.08381237  0.66662862  0.30620292    -0.88000
O1378       O  0.03498419  0.63140721  0.30666483    -0.75000
Mg1379     Mg  0.14623529  0.69720908  0.34664523     1.58000
O1380       O  0.17754624  0.68012029  0.31303240    -0.82400
H1381       H  0.08577011  0.72587121  0.36529375    -0.06100
O1382       O  0.01684162  0.64287700  0.33788623    -0.87700
H1383       H  0.99456683  0.59755958  0.33421472    -0.05900
H1384       H  0.05731563  0.74026121  0.31960701    -0.06100
C1385       C  0.01334914  0.61693030  0.33966787     0.87400
C1386       C  0.09120047  0.70977220  0.36011926     0.88000
C1387       C  0.04965265  0.71855078  0.32488368     0.88100
H1388       H  0.06832619  0.62406192  0.29848962    -0.06100
O1389       O  0.11106148  0.63353750  0.32504859    -0.75100
Mg1390     Mg  0.00709488  0.65243467  0.31659248     1.58000
H1391       H  0.09630594  0.61000430  0.34372046    -0.06100
C1392       C  0.01675385  0.63269268  0.38296259     0.93000
O1393       O  0.97580911  0.66915740  0.35057440    -0.82400
C1394       C  0.46269982  0.66924506  0.33881031     0.93100
O1395       O  0.15695668  0.68690990  0.36939415    -0.82300
Mg1396     Mg  0.12963816  0.67354131  0.30919330     1.58200
O1397       O  0.00474822  0.64222144  0.37365141    -0.80700
O1398       O  0.11335606  0.71581186  0.28206222    -0.82400
C1399       C  0.18551910  0.65014196  0.20002127    -0.10500
C1400       C  0.18480074  0.62551316  0.20722057    -0.04300
C1401       C  0.17985952  0.59882525  0.20003394    -0.10500
C1402       C  0.17734422  0.59714563  0.18482979     0.10500
C1403       C  0.17798313  0.62194129  0.17725272    -0.02200
C1404       C  0.18152139  0.64830954  0.18489362     0.10300
C1405       C  0.18121116  0.67212912  0.17719988    -0.12300
C1406       C  0.17679656  0.66993056  0.16232431    -0.12300
C1407       C  0.17317404  0.64412135  0.15461372     0.10300
C1408       C  0.17440127  0.62010769  0.16203412    -0.02200
C1409       C  0.17458378  0.57172405  0.17700268    -0.12400
C1410       C  0.17274579  0.57069567  0.16192994    -0.12400
C1411       C  0.17226633  0.59442970  0.15423738     0.10500
C1412       C  0.16893463  0.59315695  0.13900366    -0.10500
C1413       C  0.16585362  0.61609378  0.13220253    -0.04300
C1414       C  0.16805305  0.64137354  0.13963705    -0.10500
H1415       H  0.18418894  0.69260022  0.18264770     0.07800
H1416       H  0.17618433  0.68861709  0.15687970     0.07800
H1417       H  0.17438507  0.55269382  0.18251190     0.07900
H1418       H  0.17091600  0.55082865  0.15632994     0.07900
H1419       H  0.18589579  0.62623365  0.21889919     0.04400
H1420       H  0.16381398  0.61538531  0.12054235     0.04400
C1421       C  0.40916814  0.56420355  0.19333351    -0.10500
C1422       C  0.43251611  0.59124836  0.19936117    -0.04300
C1423       C  0.45663957  0.61328885  0.19131672    -0.10500
C1424       C  0.45812999  0.60827124  0.17639663     0.10500
C1425       C  0.43442187  0.58088361  0.16988443    -0.02200
C1426       C  0.40984632  0.55869501  0.17840531     0.10300
C1427       C  0.38658940  0.53204609  0.17174512    -0.12300
C1428       C  0.38711057  0.52717961  0.15696438    -0.12300
C1429       C  0.41110250  0.54863166  0.14834491     0.10300
C1430       C  0.43529666  0.57559988  0.15485631    -0.02200
C1431       C  0.48226425  0.62958759  0.16784724    -0.12400
C1432       C  0.48336991  0.62414855  0.15310348    -0.12400
C1433       C  0.46018470  0.59735435  0.14636119     0.10500
C1434       C  0.46124905  0.59120573  0.13144591    -0.10500
C1435       C  0.43714665  0.56433178  0.12539323    -0.04300
C1436       C  0.41188314  0.54362541  0.13339410    -0.10500
H1437       H  0.36768254  0.51485440  0.17793284     0.07800
H1438       H  0.36872258  0.50614523  0.15236237     0.07800
H1439       H  0.50055290  0.65056532  0.17256318     0.07900
H1440       H  0.50268653  0.64105817  0.14703791     0.07900
H1441       H  0.43244127  0.59494988  0.21090170     0.04400
H1442       H  0.43699353  0.56036611  0.11388628     0.04400
O1443       O  0.04805573  0.91617075  0.35836163    -0.88000
C1444       C  0.13847029  0.95075338  0.34727900     0.88100
Mg1445     Mg  0.01180685  0.87092964  0.35209862     1.58100
O1446       O  0.10155654  0.98388592  0.32811265    -0.87700
O1447       O  0.06069546  0.96466927  0.35652913    -0.75000
C1448       C  0.03496553  0.86310986  0.28197552     0.93100
O1449       O  0.08474581  0.87944363  0.35339881    -0.74800
O1450       O  0.02429438  0.84532681  0.29271256    -0.82300
Mg1451     Mg  0.08878373  0.91896089  0.36754410     1.58000
C1452       C  0.11050249  0.98895957  0.28317432     0.93000
O1453       O  0.09570373  0.95600118  0.38407777    -0.80600
H1454       H  0.07654944  0.00484415  0.32807257    -0.05900
C1455       C  0.10488879  0.91207614  0.30831738     0.88000
O1456       O  0.99849317  0.89082423  0.33304859    -0.75100
O1457       O  0.11622069  0.95240117  0.35174877    -0.87900
O1458       O  0.12807205  0.99852761  0.29425696    -0.80700
C1459       C  0.18142840  0.53724851  0.33505820     0.93200
C1460       C  0.11288963  0.98491427  0.38546566     0.93000
Mg1461     Mg  0.05706386  0.92924086  0.29991914     1.58000
O1462       O  0.05065732  0.89218084  0.28344988    -0.80600
O1463       O  0.06105058  0.96866682  0.31419893    -0.74800
O1464       O  0.16365063  0.52727116  0.34590707    -0.80700
O1465       O  0.06106163  0.88397005  0.38430685    -0.82400
O1466       O  0.48388730  0.82072405  0.32137788    -0.80700
C1467       C  0.08002397  0.98688373  0.32355327     0.87400
O1468       O  0.02948588  0.89554743  0.31555139    -0.87900
O1469       O  0.09773942  0.93230245  0.30931477    -0.88000
O1470       O  0.08600509  0.88413592  0.31105829    -0.75000
Mg1471     Mg  0.11210589  0.99306377  0.35074708     1.58000
O1472       O  0.17375182  0.52401745  0.32273038    -0.82400
H1473       H  0.01822350  0.93081001  0.36212148    -0.06100
O1474       O  0.04476847  0.86504800  0.33931994    -0.87700
H1475       H  0.06894411  0.84324620  0.33952605    -0.05900
H1476       H  0.99564254  0.90519090  0.31304908    -0.06100
C1477       C  0.06582575  0.86146913  0.34399134     0.87400
C1478       C  0.04137699  0.93678193  0.35925280     0.88000
C1479       C  0.00725762  0.89717160  0.32011217     0.88100
H1480       H  0.12813275  0.91848065  0.30540754    -0.06100
O1481       O  0.14751194  0.95737459  0.33440685    -0.75100
Mg1482     Mg  0.03479712  0.85545839  0.31670272     1.58000
H1483       H  0.14992176  0.94260143  0.35436794    -0.06100
C1484       C  0.03597689  0.85861792  0.38433059     0.93000
O1485       O  0.47323286  0.82421220  0.34446803    -0.82400
C1486       C  0.46614346  0.81066317  0.33220365     0.93100
O1487       O  0.12350607  0.00256343  0.37467368    -0.82300
Mg1488     Mg  0.13425012  0.97728365  0.31541592     1.58200
O1489       O  0.01811260  0.84897801  0.37331315    -0.80700
O1490       O  0.08492303  0.96411523  0.28317120    -0.82400
O1491       O  0.34669163  0.91685563  0.31189036    -0.88000
C1492       C  0.28343834  0.94505273  0.31908780     0.88100
Mg1493     Mg  0.34068631  0.87301018  0.31831197     1.58100
O1494       O  0.34962332  0.98296277  0.34090464    -0.87700
O1495       O  0.37903616  0.96621400  0.31419627    -0.75000
C1496       C  0.30237405  0.86467306  0.38713981     0.93100
O1497       O  0.27322893  0.87511731  0.31382023    -0.74800
O1498       O  0.29957063  0.84815135  0.37616943    -0.82300
Mg1499     Mg  0.30870997  0.91583439  0.30063376     1.58000
C1500       C  0.33596646  0.98814329  0.38608422     0.93000
O1501       O  0.33954539  0.95286523  0.28493134    -0.71600
H1502       H  0.39512807  0.00841642  0.34332643    -0.05900
C1503       C  0.27546012  0.90762370  0.35871634     0.88000
O1504       O  0.37036615  0.89539488  0.33860203    -0.75100
O1505       O  0.30870398  0.94842881  0.31575928    -0.87900
O1506       O  0.33065946  0.99768736  0.37423597    -0.80700
C1507       C  0.32085116  0.53253217  0.33117264     0.93200
C1508       C  0.34994465  0.98134648  0.28300443     0.93000
Mg1509     Mg  0.33970478  0.93129654  0.37015856     1.58000
O1510       O  0.30940073  0.89270991  0.38606638    -0.80600
O1511       O  0.37490219  0.97263753  0.35709067    -0.74800
O1512       O  0.32976985  0.52219527  0.32077610    -0.80700
O1513       O  0.30914948  0.88318564  0.28433062    -0.82400
O1514       O  0.32100824  0.82525951  0.34900560    -0.80700
C1515       C  0.37395770  0.98907084  0.34698234     0.87400
O1516       O  0.34061840  0.89931130  0.35455097    -0.87900
O1517       O  0.30172123  0.93006356  0.35873567    -0.88000
O1518       O  0.27037569  0.88044786  0.35633607    -0.75000
Mg1519     Mg  0.35134276  0.99105156  0.31786833     1.58000
O1520       O  0.31432072  0.01999793  0.34355928    -0.82400
H1521       H  0.39203760  0.93453591  0.31007033    -0.06100
O1522       O  0.29908342  0.86403703  0.32934981    -0.87700
H1523       H  0.25340678  0.83924459  0.32754048    -0.05900
H1524       H  0.38457412  0.91268388  0.35877730    -0.06100
C1525       C  0.27450255  0.85836542  0.32367064     0.87400
C1526       C  0.37320679  0.93882323  0.31184464     0.88000
C1527       C  0.36583882  0.90275387  0.35109354     0.88100
H1528       H  0.25622664  0.91124779  0.36055337    -0.06100
O1529       O  0.27846140  0.95179386  0.33161379    -0.75100
Mg1530     Mg  0.29873007  0.85618755  0.35221459     1.58000
H1531       H  0.26493032  0.93537908  0.31128385    -0.06100
C1532       C  0.31229295  0.85967434  0.28438678     0.93000
O1533       O  0.33419703  0.82722228  0.32591054    -0.82400
C1534       C  0.32866609  0.81463844  0.33823164     0.93100
O1535       O  0.35296303  0.99949781  0.29336107    -0.82300
Mg1536     Mg  0.30789875  0.97416518  0.35185228     1.58200
O1537       O  0.31799465  0.84976747  0.29598768    -0.80700
O1538       O  0.33849991  0.96420028  0.38655669    -0.82400
C1539       C  0.42598750  0.81475677  0.20000240    -0.10500
C1540       C  0.40192936  0.81504776  0.20729440    -0.04300
C1541       C  0.37925666  0.81856700  0.20024042    -0.10500
C1542       C  0.38083774  0.82226699  0.18500092     0.10500
C1543       C  0.40461198  0.82073216  0.17729561    -0.02200
C1544       C  0.42720502  0.81692193  0.18485233     0.10300
C1545       C  0.45000318  0.81470802  0.17707334    -0.12300
C1546       C  0.45062497  0.81586449  0.16208786    -0.12300
C1547       C  0.42893471  0.82004833  0.15437808     0.10300
C1548       C  0.40585063  0.82291852  0.16199832    -0.02200
C1549       C  0.35937151  0.82680535  0.17718911    -0.12400
C1550       C  0.36127951  0.83010580  0.16216509    -0.12400
C1551       C  0.38410536  0.82797849  0.15433695     0.10500
C1552       C  0.38639709  0.83104123  0.13908795    -0.10500
C1553       C  0.40889783  0.82751549  0.13197879    -0.04300
C1554       C  0.42988915  0.82192847  0.13921937    -0.10500
H1555       H  0.46727125  0.81151554  0.18253649     0.07800
H1556       H  0.46847957  0.81378713  0.15655706     0.07800
H1557       H  0.34092119  0.82788593  0.18264240     0.07900
H1558       H  0.34449184  0.83398819  0.15667542     0.07900
H1559       H  0.40152383  0.81360034  0.21895587     0.04400
H1560       H  0.40982985  0.82862969  0.12030132     0.04400
O1561       O  0.28315134  0.52087079  0.97875085    -0.88000
C1562       C  0.19261203  0.96380446  0.98946048     0.88100
Mg1563     Mg  0.32018913  0.51229145  0.98404421     1.58100
O1564       O  0.22777126  0.53319230  0.00899223    -0.87700
O1565       O  0.26953808  0.55612019  0.98099809    -0.75000
C1566       C  0.29653791  0.47975394  0.05365581     0.93100
O1567       O  0.24683921  0.94692126  0.98258193    -0.74800
O1568       O  0.30690036  0.97293259  0.04257888    -0.82300
Mg1569     Mg  0.24253306  0.98274535  0.96932654     1.58000
C1570       C  0.21954366  0.53060023  0.05417070     0.93000
O1571       O  0.23626107  0.01307657  0.95327356    -0.80600
H1572       H  0.25235096  0.57904409  0.00942876    -0.05900
C1573       C  0.22588661  0.95841519  0.02744243     0.88000
O1574       O  0.33322225  0.54418702  0.00386079    -0.75100
O1575       O  0.21487255  0.98780512  0.98526343    -0.87900
O1576       O  0.20145698  0.52226755  0.04321095    -0.80700
C1577       C  0.14784132  0.00399351  0.00111948     0.93200
C1578       C  0.21928493  0.02490102  0.95151224     0.93000
Mg1579     Mg  0.27296986  0.52330577  0.03676526     1.58000
O1580       O  0.28045389  0.49289359  0.05280598    -0.80600
O1581       O  0.26826839  0.55846640  0.02292003    -0.74800
O1582       O  0.16610993  0.01151842  0.99050550    -0.80700
O1583       O  0.26994287  0.97675594  0.95237311    -0.82400
O1584       O  0.34903958  0.49032466  0.01400338    -0.80700
C1585       C  0.24914394  0.55767725  0.01370097     0.87400
O1586       O  0.30085353  0.51760081  0.02068038    -0.87900
O1587       O  0.23222016  0.98563445  0.02746807    -0.88000
O1588       O  0.24544415  0.95027382  0.02415385    -0.75000
Mg1589     Mg  0.21781620  0.53187402  0.98628343     1.58000
O1590       O  0.15556980  0.00087329  0.01386747    -0.82400
H1591       H  0.31252823  0.56549413  0.97570183    -0.06100
O1592       O  0.28755711  0.97266317  0.99619011    -0.87700
H1593       H  0.26414973  0.92679754  0.99552063    -0.05900
H1594       H  0.33502176  0.56049777  0.02412147    -0.06100
C1595       C  0.26659618  0.94801797  0.99145185     0.87400
C1596       C  0.28936367  0.54802586  0.97825326     0.88000
C1597       C  0.32356399  0.54138723  0.01666568     0.88100
H1598       H  0.20270634  0.94087569  0.02992231    -0.06100
O1599       O  0.18296955  0.96117314  0.00226575    -0.75100
Mg1600     Mg  0.29703821  0.97300200  0.01873357     1.58000
H1601       H  0.18161389  0.94432876  0.98217546    -0.06100
C1602       C  0.29586438  0.97851174  0.95122908     0.93000
O1603       O  0.35897952  0.50346864  0.99082675    -0.82400
C1604       C  0.36656321  0.49755256  0.00302761     0.93100
O1605       O  0.20719427  0.03107003  0.96211758    -0.82300
Mg1606     Mg  0.19540991  0.99418716  0.02156286     1.58200
O1607       O  0.31483398  0.98690289  0.96179685    -0.80700
O1608       O  0.24485728  0.53053595  0.05385363    -0.82400
O1609       O  0.28227453  0.75588423  0.02342012    -0.88000
C1610       C  0.19265869  0.72708395  0.01161271     0.88100
Mg1611     Mg  0.32088340  0.80007707  0.01855517     1.58100
O1612       O  0.22466238  0.68675125  0.99423712    -0.87700
O1613       O  0.26480346  0.70615441  0.02297861    -0.75000
C1614       C  0.30048609  0.80419476  0.94826433     0.93100
O1615       O  0.25003789  0.79747878  0.01962894    -0.74800
O1616       O  0.31191114  0.82256943  0.95896591    -0.82300
Mg1617     Mg  0.24354590  0.75603519  0.03272539     1.58000
C1618       C  0.21881331  0.68069326  0.94910279     0.93000
O1619       O  0.23873567  0.71832075  0.04745991    -0.80600
H1620       H  0.24809256  0.66426570  0.99546477    -0.05900
C1621       C  0.22808453  0.76094368  0.97371863     0.88000
O1622       O  0.33367641  0.77921408  0.99965371    -0.75100
O1623       O  0.21423221  0.72435298  0.01619561    -0.87900
O1624       O  0.19981749  0.67148056  0.95956549    -0.80700
C1625       C  0.14456825  0.63848785  0.00018832     0.93200
C1626       C  0.21375653  0.69441200  0.05024057     0.93000
Mg1627     Mg  0.27326642  0.73935297  0.96687195     1.58000
O1628       O  0.28241197  0.77558321  0.94982710    -0.80600
O1629       O  0.26624656  0.70001863  0.98165909    -0.74800
O1630       O  0.16161630  0.64978074  0.01129524    -0.80700
O1631       O  0.27267479  0.78750091  0.05042049    -0.82400
O1632       O  0.35091423  0.84784902  0.98832024    -0.80700
C1633       C  0.24596012  0.68256821  0.99053773     0.87400
O1634       O  0.30141368  0.77326625  0.98261247    -0.87900
O1635       O  0.23317693  0.73933471  0.97494125    -0.88000
O1636       O  0.24839186  0.78856115  0.97658709    -0.75000
Mg1637     Mg  0.21293043  0.68103647  0.01671187     1.58000
O1638       O  0.15302807  0.65003149  0.98768003    -0.82400
H1639       H  0.30899888  0.73785032  0.02789676    -0.06100
O1640       O  0.28921135  0.80830557  0.00567476    -0.87700
H1641       H  0.26872500  0.83379104  0.00610255    -0.05900
H1642       H  0.33476919  0.76306549  0.97970196    -0.06100
C1643       C  0.26970509  0.81430484  0.01035860     0.87400
C1644       C  0.28643010  0.73372318  0.02489446     0.88000
C1645       C  0.32382803  0.77170755  0.98687544     0.88100
H1646       H  0.20540790  0.75610535  0.97045840    -0.06100
O1647       O  0.18243480  0.71864828  0.99891169    -0.75100
Mg1648     Mg  0.29967152  0.81517942  0.98294362     1.58000
H1649       H  0.18261183  0.73722093  0.01845058    -0.06100
C1650       C  0.29902471  0.81107417  0.05152318     0.93000
O1651       O  0.36120229  0.84596414  0.01165858    -0.82400
C1652       C  0.36867587  0.85837379  0.99927044     0.93100
O1653       O  0.19785653  0.67579091  0.04027788    -0.82300
Mg1654     Mg  0.19441428  0.69540762  0.98054903     1.58200
O1655       O  0.31671545  0.82202103  0.04062387    -0.80700
O1656       O  0.24501708  0.70458475  0.95013765    -0.82400
O1657       O  0.02524810  0.76582132  0.02423986    -0.88000
C1658       C  0.46603295  0.68007001  0.00748580     0.88100
Mg1659     Mg  0.01963134  0.80576386  0.02171118     1.58100
O1660       O  0.03798787  0.71794458  0.99064533    -0.87700
O1661       O  0.05849110  0.74981655  0.02164962    -0.75000
C1662       C  0.99871913  0.80528328  0.95054067     0.93100
O1663       O  0.45271229  0.73521575  0.01817299    -0.74800
O1664       O  0.99181366  0.81453595  0.96206594    -0.82300
Mg1665     Mg  0.48507951  0.72440337  0.03120029     1.58000
C1666       C  0.04015225  0.72150421  0.94537147     0.93000
O1667       O  0.51266637  0.71149246  0.04637182    -0.80600
H1668       H  0.08375467  0.73950681  0.99202949    -0.05900
C1669       C  0.46914871  0.72722362  0.97143133     0.88000
O1670       O  0.05454234  0.82353789  0.00324137    -0.75100
O1671       O  0.48990219  0.69976055  0.01338096    -0.87900
O1672       O  0.02971149  0.70157238  0.95533258    -0.80700
C1673       C  0.50668168  0.63668479  0.99081963     0.93200
C1674       C  0.52294345  0.69291955  0.04696756     0.93000
Mg1675     Mg  0.03599577  0.77281886  0.96615791     1.58000
O1676       O  0.00959308  0.78712557  0.95080302    -0.80600
O1677       O  0.06736680  0.76130717  0.97961416    -0.74800
O1678       O  0.51179468  0.65045505  0.00303397    -0.80700
O1679       O  0.47924128  0.74863574  0.05030963    -0.82400
O1680       O  0.00447604  0.84592897  0.99502492    -0.80700
C1681       C  0.06374468  0.73918443  0.98750327     0.87400
O1682       O  0.03008981  0.79748727  0.98403362    -0.87900
O1683       O  0.49549907  0.73152728  0.97282807    -0.88000
O1684       O  0.46193386  0.74700102  0.97562303    -0.75000
Mg1685     Mg  0.03285959  0.70033658  0.01220842     1.58000
O1686       O  0.50481958  0.64880202  0.97915118    -0.82400
H1687       H  0.06935814  0.79161460  0.02998602    -0.06100
O1688       O  0.48152575  0.77850785  0.00700398    -0.87700
H1689       H  0.43570802  0.75672622  0.00594694    -0.05900
H1690       H  0.07404363  0.83067958  0.98349170    -0.06100
C1691       C  0.45592472  0.75720184  0.01029789     0.87400
C1692       C  0.05159848  0.77002120  0.02556401     0.88000
C1693       C  0.05362442  0.81784230  0.98986129     0.88100
H1694       H  0.45160252  0.70577750  0.96678774    -0.06100
O1695       O  0.46488446  0.67457148  0.99407233    -0.75100
Mg1696     Mg  0.48645753  0.79611679  0.98537623     1.58000
H1697       H  0.44547132  0.66777733  0.01382381    -0.06100
C1698       C  0.48180953  0.77479172  0.05246912     0.93000
O1699       O  0.01319287  0.84763719  0.01875737    -0.82400
C1700       C  0.00929253  0.85932612  0.00737491     0.93100
O1701       O  0.02825469  0.68198070  0.03556818    -0.82300
Mg1702     Mg  0.50019660  0.69137784  0.97581069     1.58200
O1703       O  0.49134762  0.79522768  0.04274309    -0.80700
O1704       O  0.04285005  0.74794764  0.94697219    -0.82400
O1705       O  0.18341137  0.56505255  0.64150474    -0.88000
C1706       C  0.12798878  0.59586548  0.65935832     0.88100
Mg1707     Mg  0.17847508  0.51995035  0.64422383     1.58100
O1708       O  0.20330645  0.63129340  0.67348438    -0.87700
O1709       O  0.21696983  0.61434480  0.64224189    -0.75000
C1710       C  0.16569514  0.50965471  0.71584304     0.93100
O1711       O  0.11206910  0.52493498  0.64998423    -0.74800
O1712       O  0.15803008  0.99068384  0.70528348    -0.82300
Mg1713     Mg  0.14245798  0.56625759  0.63592605     1.58000
C1714       C  0.21168501  0.63265433  0.71831360     0.93000
O1715       O  0.16767102  0.60372086  0.61957573    -0.80600
H1716       H  0.24870643  0.65394446  0.67055615    -0.05900
C1717       C  0.13664085  0.55600060  0.69448322     0.88000
O1718       O  0.21643229  0.53885255  0.66146938    -0.75100
O1719       O  0.15069474  0.59808180  0.65318239    -0.87900
O1720       O  0.20237029  0.64400417  0.70859255    -0.80700
C1721       C  0.17229742  0.68185292  0.67345120     0.93200
C1722       C  0.17577962  0.63184727  0.61828756     0.93000
Mg1723     Mg  0.20357391  0.57582372  0.69785004     1.58000
O1724       O  0.17829772  0.53834159  0.71391851    -0.80600
O1725       O  0.23369251  0.61676092  0.68340075    -0.74800
O1726       O  0.17637451  0.67170577  0.66147226    -0.80700
O1727       O  0.13415772  0.53495323  0.61745010    -0.82400
O1728       O  0.16736634  0.96894897  0.67212402    -0.80700
C1729       C  0.22928638  0.63510949  0.67573369     0.87400
O1730       O  0.19460682  0.54311194  0.68088676    -0.87900
O1731       O  0.16290927  0.57738157  0.69225553    -0.88000
O1732       O  0.12839964  0.52832926  0.69105368    -0.75000
Mg1733     Mg  0.19373897  0.64021211  0.65211323     1.58000
O1734       O  0.17147327  0.66924167  0.68543207    -0.82400
H1735       H  0.22618666  0.58203914  0.63417437    -0.06100
O1736       O  0.14262340  0.51071438  0.65989648    -0.87700
H1737       H  0.09714085  0.48722606  0.66244267    -0.05900
H1738       H  0.23835017  0.55288274  0.68076148    -0.06100
C1739       C  0.11656087  0.50646966  0.65748224     0.87400
C1740       C  0.20937286  0.58672256  0.63904370     0.88000
C1741       C  0.21723889  0.54503623  0.67476602     0.88100
H1742       H  0.11999191  0.56105956  0.69925634    -0.06100
O1743       O  0.12903868  0.60256256  0.67260437    -0.75100
Mg1744     Mg  0.15066249  0.50133499  0.68155146     1.58000
H1745       H  0.10668154  0.58743667  0.65345771    -0.06100
C1746       C  0.13662015  0.51162405  0.61451534     0.93000
O1747       O  0.17428857  0.47306206  0.64819621    -0.82400
C1748       C  0.17211128  0.95947101  0.66005091     0.93100
O1749       O  0.18274060  0.64976570  0.62917466    -0.82300
Mg1750     Mg  0.16804089  0.62248876  0.68933605     1.58200
O1751       O  0.14652202  0.49982982  0.62376321    -0.80700
O1752       O  0.21247096  0.60806734  0.71632443    -0.82400
C1753       C  0.13437451  0.65516160  0.86201199    -0.10500
C1754       C  0.11178254  0.65993269  0.86820540    -0.04300
C1755       C  0.09342946  0.66800202  0.86019009    -0.10500
C1756       C  0.09681909  0.67055679  0.84503882     0.10500
C1757       C  0.12028108  0.66670587  0.83843137    -0.02200
C1758       C  0.13969528  0.65977377  0.84699704     0.10300
C1759       C  0.16343788  0.65734116  0.84027868    -0.12300
C1760       C  0.16839535  0.66191525  0.82547845    -0.12300
C1761       C  0.14905971  0.66791659  0.81677437     0.10300
C1762       C  0.12436394  0.66981822  0.82323912    -0.02200
C1763       C  0.07726770  0.67622236  0.83632406    -0.12400
C1764       C  0.08032183  0.67774833  0.82131613    -0.12400
C1765       C  0.10374932  0.67479666  0.81454237     0.10500
C1766       C  0.10781425  0.67740207  0.79936399    -0.10500
C1767       C  0.13312446  0.67688839  0.79347631    -0.04300
C1768       C  0.15380078  0.67254470  0.80177919    -0.10500
H1769       H  0.17858353  0.65218823  0.84646622     0.07800
H1770       H  0.18739071  0.66042503  0.82086862     0.07800
H1771       H  0.05910935  0.67899215  0.84107776     0.07900
H1772       H  0.06458308  0.68192064  0.81504452     0.07900
H1773       H  0.10901781  0.65829219  0.87981216     0.04400
H1774       H  0.13620422  0.67855957  0.78189417     0.04400
C1775       C  0.11249328  0.96557124  0.86852068    -0.10500
C1776       C  0.08647775  0.94460886  0.87606900    -0.04300
C1777       C  0.06153417  0.91963489  0.86931270    -0.10500
C1778       C  0.06186122  0.91617517  0.85413610     0.10500
C1779       C  0.08803522  0.93739096  0.84618877    -0.02200
C1780       C  0.11375724  0.96177449  0.85344399     0.10300
C1781       C  0.13973192  0.98177721  0.84541035    -0.12300
C1782       C  0.14056848  0.97810352  0.83050178    -0.12300
C1783       C  0.11529865  0.95458954  0.82308787     0.10300
C1784       C  0.08862999  0.93401548  0.83096747    -0.02200
C1785       C  0.03667437  0.89248868  0.84666533    -0.12400
C1786       C  0.03697594  0.88956268  0.83167061    -0.12400
C1787       C  0.06264869  0.90993034  0.82363867     0.10500
C1788       C  0.06355361  0.90699679  0.80847123    -0.10500
C1789       C  0.08970793  0.92766582  0.80110389    -0.04300
C1790       C  0.11567057  0.95062158  0.80799294    -0.10500
H1791       H  0.15962879  0.00049974  0.85061921     0.07800
H1792       H  0.16107602  0.99396242  0.82476555     0.07800
H1793       H  0.01631483  0.87625846  0.85237573     0.07900
H1794       H  0.01699485  0.87110908  0.82637484     0.07900
H1795       H  0.08647890  0.94682266  0.88769993     0.04400
H1796       H  0.08987366  0.92573865  0.78943996     0.04400
O1797       O  0.42154205  0.59361465  0.64223662    -0.88000
C1798       C  0.39395619  0.50563250  0.65481670     0.88100
Mg1799     Mg  0.46750182  0.63214115  0.64507047     1.58100
O1800       O  0.36329935  0.54307987  0.67530222    -0.87700
O1801       O  0.37312805  0.57925407  0.64596132    -0.75000
C1802       C  0.49510780  0.62512673  0.71476916     0.93100
O1803       O  0.46159280  0.56021236  0.64471820    -0.74800
O1804       O  0.00989347  0.63446787  0.70300530    -0.82300
Mg1805     Mg  0.41810224  0.55276048  0.63284773     1.58000
C1806       C  0.37003813  0.54242414  0.72026388     0.93000
O1807       O  0.37724319  0.54416279  0.61886985    -0.80600
H1808       H  0.34077518  0.56651507  0.67634060    -0.05900
C1809       C  0.44235749  0.54825874  0.69197623     0.88000
O1810       O  0.45231357  0.64867677  0.66489877    -0.75100
O1811       O  0.38944469  0.52609591  0.65022828    -0.87900
O1812       O  0.35795997  0.52357970  0.70971371    -0.80700
C1813       C  0.31142579  0.96162647  0.67250874     0.93200
C1814       C  0.34825299  0.52748194  0.61827634     0.93000
Mg1815     Mg  0.42397172  0.59482890  0.70027222     1.58000
O1816       O  0.46606629  0.60747145  0.71489660    -0.80600
O1817       O  0.38020691  0.58557314  0.68807606    -0.74800
O1818       O  0.31784812  0.97808955  0.66117611    -0.80700
O1819       O  0.44685518  0.57916776  0.61409945    -0.82400
O1820       O  0.02513858  0.66661675  0.67128918    -0.80700
C1821       C  0.36034189  0.56470480  0.67986732     0.87400
O1822       O  0.45284945  0.62087566  0.68269659    -0.87900
O1823       O  0.42089466  0.55362415  0.69135531    -0.88000
O1824       O  0.46922941  0.56776398  0.68794466    -0.75000
Mg1825     Mg  0.34828369  0.52869675  0.65340226     1.58000
O1826       O  0.32781963  0.97128097  0.68394259    -0.82400
H1827       H  0.40446158  0.62154149  0.63882006    -0.06100
O1828       O  0.47831479  0.60223838  0.65779106    -0.87700
H1829       H  0.50080581  0.57876291  0.65662910    -0.05900
H1830       H  0.44280091  0.65442170  0.68553616    -0.06100
C1831       C  0.48132211  0.58072460  0.65310934     0.87400
C1832       C  0.40008702  0.59909428  0.64210482     0.88000
C1833       C  0.44936208  0.64198099  0.67814750     0.88100
H1834       H  0.43804097  0.52616909  0.69580874    -0.06100
O1835       O  0.39156145  0.49912615  0.66809274    -0.75100
Mg1836     Mg  0.49371972  0.61746600  0.67960557     1.58000
H1837       H  0.40112345  0.49370586  0.64742424    -0.06100
C1838       C  0.47148255  0.60451489  0.61264588     0.93000
O1839       O  0.01547471  0.67342651  0.64852557    -0.82400
C1840       C  0.03224275  0.68249049  0.65980609     0.93100
O1841       O  0.33241704  0.51449855  0.62946989    -0.82300
Mg1842     Mg  0.37528412  0.51427737  0.68799357     1.58200
O1843       O  0.48434653  0.62297198  0.62321875    -0.80700
O1844       O  0.39449878  0.56811896  0.71896883    -0.82400
O1845       O  0.41510914  0.84000976  0.68943059    -0.88000
C1846       C  0.44756343  0.77969087  0.68357949     0.88100
Mg1847     Mg  0.37044834  0.83235508  0.68344339     1.58100
O1848       O  0.47880871  0.84228343  0.65978811    -0.87700
O1849       O  0.46356146  0.87410659  0.68647614    -0.75000
C1850       C  0.35513984  0.78306329  0.61632781     0.93100
O1851       O  0.37650263  0.76651685  0.68884791    -0.74800
O1852       O  0.33940069  0.78243975  0.62711709    -0.82300
Mg1853     Mg  0.41734107  0.80467602  0.70128487     1.58000
C1854       C  0.47681398  0.81950584  0.61467332     0.93000
O1855       O  0.45518186  0.83876373  0.71630410    -0.80600
H1856       H  0.50172271  0.88733374  0.65586006    -0.05900
C1857       C  0.40273134  0.76264944  0.64484765     0.88000
O1858       O  0.39002914  0.85902781  0.66253179    -0.75100
O1859       O  0.44962267  0.80479039  0.68617168    -0.87900
O1860       O  0.48944071  0.81717493  0.62626823    -0.80700
C1861       C  0.03312600  0.81977037  0.66903057     0.93200
C1862       C  0.48403401  0.85090619  0.71793797     0.93000
Mg1863     Mg  0.42189507  0.82373449  0.63172405     1.58000
O1864       O  0.38228426  0.78770214  0.61771801    -0.80600
O1865       O  0.46419668  0.86302456  0.64310715    -0.74800
O1866       O  0.02427699  0.83034118  0.67937836    -0.80700
O1867       O  0.38473342  0.80469340  0.71750060    -0.82400
O1868       O  0.31820068  0.80547894  0.65400987    -0.80700
C1869       C  0.48262836  0.86502204  0.65301968     0.87400
O1870       O  0.39189658  0.82640866  0.64752030    -0.87900
O1871       O  0.42441055  0.78929642  0.64415601    -0.88000
O1872       O  0.37539472  0.75684839  0.64727206    -0.75000
Mg1873     Mg  0.49034261  0.84846666  0.68278820     1.58000
O1874       O  0.51778934  0.80930526  0.65733150    -0.82400
H1875       H  0.43064191  0.88514429  0.69090861    -0.06100
O1876       O  0.36042872  0.78866620  0.67355011    -0.87700
H1877       H  0.33884005  0.74317844  0.67612139    -0.05900
H1878       H  0.40394720  0.86924254  0.64181963    -0.06100
C1879       C  0.35747424  0.76536325  0.67947832     0.87400
C1880       C  0.43604054  0.86701416  0.68916344     0.88000
C1881       C  0.39540339  0.85209273  0.65014122     0.88100
H1882       H  0.40714061  0.74375956  0.64346532    -0.06100
O1883       O  0.45270788  0.77291575  0.67111052    -0.75100
Mg1884     Mg  0.34988676  0.78437779  0.65091889     1.58000
H1885       H  0.44032494  0.76279885  0.69199543    -0.06100
C1886       C  0.36081729  0.80716640  0.71763344     0.93000
O1887       O  0.32433062  0.82593673  0.67605309    -0.82400
C1888       C  0.30987068  0.81712006  0.66408598     0.93100
O1889       O  0.00164342  0.85381076  0.70742556    -0.82300
Mg1890     Mg  0.47030423  0.79894602  0.64991854     1.58200
O1891       O  0.34994760  0.81223570  0.70616613    -0.80700
O1892       O  0.45234192  0.82096301  0.61502756    -0.82400
C1893       C  0.34118817  0.93581911  0.86171039    -0.10500
C1894       C  0.34483169  0.91294527  0.86818149    -0.04300
C1895       C  0.34344467  0.88840807  0.86043357    -0.10500
C1896       C  0.33889567  0.88676329  0.84533552     0.10500
C1897       C  0.33654116  0.91068924  0.83834111    -0.02200
C1898       C  0.33747687  0.93525575  0.84658468     0.10300
C1899       C  0.33494303  0.95849816  0.83949298    -0.12300
C1900       C  0.33184287  0.95796633  0.82452041    -0.12300
C1901       C  0.33052316  0.93382546  0.81616141     0.10300
C1902       C  0.33256791  0.90970586  0.82313686    -0.02200
C1903       C  0.33678147  0.86220913  0.83707516    -0.12400
C1904       C  0.33231455  0.86094244  0.82216678    -0.12400
C1905       C  0.33026035  0.88442510  0.81496981     0.10500
C1906       C  0.32528886  0.88320278  0.79988050    -0.10500
C1907       C  0.32404034  0.90749940  0.79329892    -0.04300
C1908       C  0.32641712  0.93258355  0.80104038    -0.10500
H1909       H  0.33570842  0.97745897  0.84550291     0.07800
H1910       H  0.33006602  0.97645128  0.81953654     0.07800
H1911       H  0.33849195  0.84374058  0.84212499     0.07900
H1912       H  0.33041708  0.84132439  0.81631837     0.07900
H1913       H  0.34680299  0.91320486  0.87984189     0.04400
H1914       H  0.32188502  0.90726507  0.78166936     0.04400
C1915       C  0.99817082  0.74638540  0.46803979    -0.10500
C1916       C  0.99187210  0.71896695  0.46122364    -0.04300
C1917       C  0.99170918  0.69470803  0.46853792    -0.10500
C1918       C  0.99813309  0.69779981  0.48351451     0.10500
C1919       C  0.00351744  0.72510071  0.49092236    -0.02200
C1920       C  0.00370401  0.74962144  0.48316556     0.10300
C1921       C  0.00862800  0.77605458  0.49080858    -0.12300
C1922       C  0.51299192  0.77842550  0.50579438    -0.12300
C1923       C  0.51300864  0.75463196  0.51367705     0.10300
C1924       C  0.50859604  0.72777878  0.50612201    -0.02200
C1925       C  0.99876141  0.67425043  0.49131237    -0.12400
C1926       C  0.50435326  0.67712546  0.50613796    -0.12400
C1927       C  0.50905273  0.70345565  0.51375527     0.10500
C1928       C  0.51451796  0.70642427  0.52880093    -0.10500
C1929       C  0.51809461  0.73257089  0.53594654    -0.04300
C1930       C  0.51763258  0.75675758  0.52887563    -0.10500
H1931       H  0.00864125  0.79493585  0.48525415     0.07800
H1932       H  0.51651278  0.79914682  0.51119943     0.07800
H1933       H  0.99483028  0.65331712  0.48598052     0.07900
H1934       H  0.50478582  0.65840191  0.51163035     0.07900
H1935       H  0.98818699  0.71688095  0.44965026     0.04400
H1936       H  0.52028254  0.73363913  0.54759094     0.04400
C1937       C  0.26262563  0.75738807  0.47013680    -0.10500
C1938       C  0.24014476  0.73221421  0.46250369    -0.04300
C1939       C  0.21597522  0.70720667  0.46927149    -0.10500
C1940       C  0.21343581  0.70745238  0.48440775     0.10500
C1941       C  0.23679185  0.73238249  0.49247414    -0.02200
C1942       C  0.26170237  0.75731447  0.48532086     0.10300
C1943       C  0.28506314  0.78111018  0.49351413    -0.12300
C1944       C  0.28421107  0.78048731  0.50851936    -0.12300
C1945       C  0.25932547  0.75672298  0.51576694     0.10300
C1946       C  0.23504421  0.73264520  0.50770167    -0.02200
C1947       C  0.18848205  0.68371759  0.49167885    -0.12400
C1948       C  0.18623589  0.68452366  0.50667024    -0.12400
C1949       C  0.20921840  0.70873923  0.51485986     0.10500
C1950       C  0.20732764  0.71023868  0.53002357    -0.10500
C1951       C  0.23150044  0.73401648  0.53763975    -0.04300
C1952       C  0.25767671  0.75655380  0.53089987    -0.10500
H1953       H  0.30442506  0.80010446  0.48834703     0.07800
H1954       H  0.30283102  0.79917078  0.51443501     0.07800
H1955       H  0.17040866  0.66449795  0.48578156     0.07900
H1956       H  0.16643102  0.66602510  0.51182982     0.07900
H1957       H  0.24055974  0.73279945  0.45081706     0.04400
H1958       H  0.23077109  0.73387258  0.54932735     0.04400
C1959       C  0.22127767  0.03178537  0.46896595    -0.10500
C1960       C  0.24836541  0.03764292  0.46219128    -0.04300
C1961       C  0.27174773  0.03544383  0.46932926    -0.10500
C1962       C  0.26882121  0.02927393  0.48439775     0.10500
C1963       C  0.24169502  0.02433573  0.49164300    -0.02200
C1964       C  0.21769837  0.02519933  0.48383868     0.10300
C1965       C  0.19100110  0.01988491  0.49112431    -0.12300
C1966       C  0.18730012  0.51291383  0.50573134    -0.12300
C1967       C  0.21044006  0.51169213  0.51367382     0.10300
C1968       C  0.23822057  0.51794058  0.50667151    -0.02200
C1969       C  0.29214206  0.02847067  0.49249850    -0.12400
C1970       C  0.28896308  0.52271798  0.50734259    -0.12400
C1971       C  0.26223952  0.51731509  0.51463237     0.10500
C1972       C  0.25815399  0.51059181  0.52958676    -0.10500
C1973       C  0.23059440  0.50426694  0.53601529    -0.04300
C1974       C  0.20651318  0.50392664  0.52841279    -0.10500
H1975       H  0.17267900  0.02111916  0.48558124     0.07800
H1976       H  0.16613232  0.50857524  0.51079326     0.07800
H1977       H  0.31325385  0.03270240  0.48743260     0.07900
H1978       H  0.30752391  0.52228566  0.51308646     0.07900
H1979       H  0.25017591  0.04169715  0.45068238     0.04400
H1980       H  0.22780952  0.49967254  0.54748047     0.04400
O1981       O  0.46598890  0.50937605  0.98916645    -0.88000
C1982       C  0.03116763  0.55738475  0.02006586     0.88100
Mg1983     Mg  0.43227481  0.96145011  0.99153547     1.58100
O1984       O  0.05786623  0.53578458  0.98933193    -0.87700
O1985       O  0.00166564  0.53872154  0.97415599    -0.75000
C1986       C  0.50859920  0.88849750  0.00835367     0.93100
O1987       O  0.45966424  0.99959979  0.02319154    -0.74800
O1988       O  0.48299495  0.88739642  0.01052013    -0.82300
Mg1989     Mg  0.47135708  0.53910406  0.00728389     1.58000
C1990       C  0.11729879  0.50036476  0.99875973     0.93000
O1991       O  0.48182634  0.58320893  0.99499244    -0.80600
H1992       H  0.06747781  0.53808254  0.96835655    -0.05900
C1993       C  0.03798428  0.97700622  0.02373071     0.88000
O1994       O  0.46114197  0.94660164  0.97778909    -0.75100
O1995       O  0.01957863  0.55331034  0.00794766    -0.87900
O1996       O  0.11491124  0.52444343  0.99890794    -0.80700
C1997       C  0.11544534  0.60940015  0.00158252     0.93200
C1998       C  0.00571509  0.60695402  0.99045187     0.93000
Mg1999     Mg  0.04326100  0.95798445  0.99360523     1.58000
O2000       O  0.03305271  0.91374046  0.00587015    -0.80600
O2001       O  0.05608360  0.99717563  0.97748961    -0.74800
O2002       O  0.09097267  0.60748671  0.99655547    -0.80700
O2003       O  0.42064626  0.52478084  0.00560783    -0.82400
O2004       O  0.42254571  0.88864724  0.00180898    -0.80700
C2005       C  0.06095684  0.52453358  0.97803432     0.87400
O2006       O  0.49445111  0.94343458  0.99187205    -0.87900
O2007       O  0.04641231  0.98720551  0.01154733    -0.88000
O2008       O  0.51102844  0.95509864  0.02592144    -0.75000
Mg2009     Mg  0.04421392  0.57023706  0.98772951     1.58000
O2010       O  0.11616480  0.58622626  0.00659784    -0.82400
H2011       H  0.45829367  0.50753644  0.96797259    -0.06100
O2012       O  0.45525163  0.95991241  0.01116596    -0.87700
H2013       H  0.44860917  0.95884407  0.03241122    -0.05900
H2014       H  0.49100382  0.93310380  0.97087069    -0.06100
C2015       C  0.45407940  0.97196114  0.02261704     0.87400
C2016       C  0.47434793  0.51818837  0.97679236     0.88000
C2017       C  0.48257674  0.94049557  0.97987175     0.88100
H2018       H  0.05369766  0.98713349  0.03271126    -0.06100
O2019       O  0.05188734  0.55072935  0.02283997    -0.75100
Mg2020     Mg  0.46893104  0.92468562  0.01162013     1.58000
H2021       H  0.02261176  0.56570500  0.02864437    -0.06100
C2022       C  0.39649485  0.99874306  0.00410898     0.93000
O2023       O  0.39643674  0.91120897  0.99424314    -0.82400
C2024       C  0.39763032  0.88747868  0.99796036     0.93100
O2025       O  0.03029636  0.60681604  0.98733455    -0.82300
Mg2026     Mg  0.08026739  0.53564513  0.00935970     1.58200
O2027       O  0.39755461  0.97404180  0.00208852    -0.80700
O2028       O  0.09409298  0.97359844  0.99729548    -0.82400
O2029       O  0.36356932  0.65906041  0.32403345    -0.88000
C2030       C  0.29703252  0.61866794  0.35510150     0.88100
Mg2031     Mg  0.39964678  0.70692175  0.32518501     1.58100
O2032       O  0.27227494  0.63504108  0.32220710    -0.87700
O2033       O  0.32708819  0.62565477  0.30999765    -0.75000
C2034       C  0.32903970  0.78559784  0.33942569     0.93100
O2035       O  0.37155470  0.67345246  0.35815217    -0.74800
O2036       O  0.35383885  0.78604902  0.34283204    -0.82300
Mg2037     Mg  0.35750457  0.63196457  0.34303354     1.58000
C2038       C  0.21846537  0.67852015  0.32521485     0.93000
O2039       O  0.34521183  0.58660579  0.33094518    -0.80600
H2040       H  0.26802662  0.63154422  0.30077528    -0.05900
C2041       C  0.29429275  0.69892420  0.35486034     0.88000
O2042       O  0.37328661  0.72232750  0.31054283    -0.75100
O2043       O  0.30920199  0.62009223  0.34338466    -0.87900
O2044       O  0.21780433  0.65391994  0.32911042    -0.80700
C2045       C  0.21117631  0.56598179  0.33637365     0.93200
C2046       C  0.32016719  0.56125439  0.32925681     0.93000
Mg2047     Mg  0.29371530  0.71575429  0.32359514     1.58000
O2048       O  0.30502519  0.76109485  0.33529908    -0.80600
O2049       O  0.28144049  0.67421756  0.30870786    -0.74800
O2050       O  0.23562679  0.56552254  0.33317580    -0.80700
O2051       O  0.40850235  0.64450641  0.34192024    -0.82400
O2052       O  0.41279319  0.78106623  0.33526226    -0.80700
C2053       C  0.27335489  0.64605912  0.31023084     0.87400
O2054       O  0.34126764  0.72798187  0.32425854    -0.87900
O2055       O  0.28586777  0.68822786  0.34261539    -0.88000
O2056       O  0.32188746  0.71916441  0.35755522    -0.75000
Mg2057     Mg  0.28353661  0.59864647  0.32375778     1.58000
O2058       O  0.21131442  0.59087070  0.33928295    -0.82400
H2059       H  0.37036480  0.65477913  0.30314567    -0.06100
O2060       O  0.37781062  0.71163542  0.34470310    -0.87700
H2061       H  0.38581616  0.71642619  0.36591724    -0.05900
H2062       H  0.34576497  0.73834855  0.30337108    -0.06100
C2063       C  0.37901720  0.70141299  0.35658176     0.87400
C2064       C  0.35459214  0.64693884  0.31206840     0.88000
C2065       C  0.35328943  0.73034864  0.31243444     0.88100
H2066       H  0.27797392  0.69025812  0.36355792    -0.06100
O2067       O  0.27619417  0.62583999  0.35640082    -0.75100
Mg2068     Mg  0.36562953  0.74750489  0.34436585     1.58000
H2069       H  0.30464454  0.61168667  0.36449886    -0.06100
C2070       C  0.43328642  0.66939716  0.33925626     0.93000
O2071       O  0.43740772  0.75732298  0.32702821    -0.82400
C2072       C  0.43705086  0.78155289  0.33094298     0.93100
O2073       O  0.29467287  0.56018438  0.32697640    -0.82300
Mg2074     Mg  0.24985511  0.64076181  0.34112191     1.58200
O2075       O  0.43328315  0.69390728  0.33578024    -0.80700
O2076       O  0.24347628  0.70343052  0.32318965    -0.82400
O2077       O  0.13378337  0.83428854  0.65540670    -0.88000
C2078       C  0.19734521  0.87653763  0.68790110     0.88100
Mg2079     Mg  0.09876514  0.78637189  0.65541179     1.58100
O2080       O  0.22630561  0.86004599  0.65633281    -0.87700
O2081       O  0.17122063  0.86633280  0.64176065    -0.75000
C2082       C  0.17008507  0.71000564  0.67301773     0.93100
O2083       O  0.12393361  0.81904601  0.68935844    -0.74800
O2084       O  0.14457095  0.70873233  0.67560694    -0.82300
Mg2085     Mg  0.13795746  0.86064046  0.67492261     1.58000
C2086       C  0.28111867  0.81802879  0.66257686     0.93000
O2087       O  0.15034232  0.90659331  0.66425662    -0.80600
H2088       H  0.23450237  0.86436527  0.63519778    -0.05900
C2089       C  0.20124515  0.79628505  0.68851665     0.88000
O2090       O  0.12727650  0.77206407  0.64154136    -0.75100
O2091       O  0.18614280  0.87402605  0.67579738    -0.87900
O2092       O  0.28099484  0.84243296  0.66643380    -0.80700
C2093       C  0.28344540  0.93088218  0.67214264     0.93200
C2094       C  0.17392578  0.93110808  0.66009353     0.93000
Mg2095     Mg  0.20613474  0.78004737  0.65739486     1.58000
O2096       O  0.19353134  0.73442814  0.66864520    -0.80600
O2097       O  0.22010523  0.82153511  0.64273925    -0.74800
O2098       O  0.25887448  0.92919660  0.66727925    -0.80700
O2099       O  0.08687008  0.84656509  0.67353087    -0.82400
O2100       O  0.08497916  0.71270631  0.66512951    -0.80700
C2101       C  0.22764547  0.84954757  0.64445320     0.87400
O2102       O  0.15811748  0.76666792  0.65627741    -0.87900
O2103       O  0.21116567  0.80742169  0.67659594    -0.88000
O2104       O  0.17354323  0.77545459  0.69020570    -0.75000
Mg2105     Mg  0.21288846  0.89490048  0.65645622     1.58000
O2106       O  0.28474996  0.90696891  0.67562157    -0.82400
H2107       H  0.12833083  0.83701774  0.63425978    -0.06100
O2108       O  0.11876599  0.78151957  0.67542189    -0.87700
H2109       H  0.10919065  0.77582105  0.69640615    -0.05900
H2110       H  0.15624272  0.75703515  0.63525837    -0.06100
C2111       C  0.11654390  0.79119441  0.68735036     0.87400
C2112       C  0.14352139  0.84560844  0.64349792     0.88000
C2113       C  0.14742604  0.76449920  0.64407504     0.88100
H2114       H  0.21631186  0.80499516  0.69779263    -0.06100
O2115       O  0.21825531  0.86989821  0.69018549    -0.75100
Mg2116     Mg  0.13147779  0.74650192  0.67570743     1.58000
H2117       H  0.18857037  0.88376712  0.69682371    -0.06100
C2118       C  0.06307463  0.82133223  0.66995225     0.93000
O2119       O  0.06106168  0.73614471  0.65584878    -0.82400
C2120       C  0.06112392  0.71202333  0.65989323     0.93100
O2121       O  0.19922276  0.93220383  0.65715870    -0.82300
Mg2122     Mg  0.24683203  0.85557882  0.67628716     1.58200
O2123       O  0.06458090  0.79812824  0.66547850    -0.80700
O2124       O  0.25667526  0.79336251  0.65909857    -0.82400
C2125       C  0.33738107  0.83515860  0.77638911     0.30100
C2126       C  0.35602093  0.82581229  0.76924391    -0.36200
C2127       C  0.34798588  0.81591997  0.75488203     0.16100
C2128       C  0.32346069  0.81544126  0.74789341     0.21900
C2129       C  0.30410109  0.82360915  0.75521988    -0.34300
C2130       C  0.31200024  0.83328422  0.76962036     0.16000
O2131       O  0.34387786  0.85040883  0.78878955    -0.26300
C2132       C  0.32210582  0.85806211  0.79010878     0.05800
C2133       C  0.30137399  0.84736764  0.77857974    -0.31200
O2134       O  0.32325339  0.81038967  0.73385534    -0.23000
C2135       C  0.34766631  0.80698746  0.73188520    -0.03000
C2136       C  0.36359734  0.80988534  0.74465211    -0.17500
H2137       H  0.37674786  0.82836814  0.77415021     0.20500
H2138       H  0.28557455  0.82464478  0.74976293     0.18900
H2139       H  0.28340806  0.85271258  0.77627247     0.18800
H2140       H  0.38538949  0.81062414  0.74595732     0.14700
C2141       C  0.31949298  0.78904508  0.58525348     0.30100
C2142       C  0.30019576  0.79622759  0.57734887    -0.36200
C2143       C  0.29936980  0.79140636  0.56245844     0.16100
C2144       C  0.31600987  0.77978049  0.55578118     0.21900
C2145       C  0.33634932  0.77374588  0.56365815    -0.34300
C2146       C  0.33733528  0.77880872  0.57859457     0.16000
O2147       O  0.32237618  0.79032826  0.59935716    -0.26300
C2148       C  0.34259154  0.78112002  0.60184604     0.05800
C2149       C  0.35294394  0.77384918  0.58932212    -0.31200
O2150       O  0.30639126  0.77036400  0.54248704    -0.23000
C2151       C  0.28355702  0.77630871  0.54057432    -0.03000
C2152       C  0.27899678  0.79038531  0.55255307    -0.17500
H2153       H  0.28548790  0.80340369  0.58255116     0.20500
H2154       H  0.34888797  0.76380569  0.55864888     0.18900
H2155       H  0.36957048  0.76619988  0.58829950     0.18800
H2156       H  0.25959870  0.79368859  0.55458739     0.14700
C2157       C  0.50095399  0.79830922  0.55404207     0.30100
C2158       C  0.47999349  0.80282117  0.56223126    -0.36200
C2159       C  0.48767731  0.81092698  0.57681718     0.16100
C2160       C  0.51399519  0.81410854  0.58313476     0.21900
C2161       C  0.53545559  0.81048523  0.57481892    -0.34300
C2162       C  0.52798089  0.80282777  0.56012595     0.16000
O2163       O  0.49569681  0.78530361  0.54107258    -0.26300
C2164       C  0.51992176  0.78179200  0.53857220     0.05800
C2165       C  0.54103820  0.79315228  0.55001890    -0.31200
O2166       O  0.51475141  0.81844231  0.59733109    -0.23000
C2167       C  0.48872463  0.81860293  0.60006845    -0.03000
C2168       C  0.47123828  0.81409335  0.58763360    -0.17500
H2169       H  0.45820997  0.79838791  0.55778187     0.20500
H2170       H  0.05574352  0.81182238  0.57962589     0.18900
H2171       H  0.06064682  0.78997894  0.55161737     0.18800
H2172       H  0.44862094  0.81166327  0.58680809     0.14700
C2173       C  0.33031898  0.50337727  0.75107717     0.30100
C2174       C  0.30881272  0.47728726  0.75846242    -0.36200
C2175       C  0.31656115  0.97434035  0.77265174     0.16100
C2176       C  0.34374053  0.99550853  0.77919620     0.21900
C2177       C  0.36465381  0.02239186  0.77201807    -0.34300
C2178       C  0.35684568  0.02538186  0.75780201     0.16000
O2179       O  0.33034856  0.50760763  0.73705828    -0.26300
C2180       C  0.35696859  0.53300338  0.73476103     0.05800
C2181       C  0.37417137  0.04528473  0.74733366    -0.31200
O2182       O  0.34933704  0.98492545  0.79116502    -0.23000
C2183       C  0.32522187  0.95678659  0.79240419    -0.03000
C2184       C  0.30391560  0.94941450  0.78129359    -0.17500
H2185       H  0.28877381  0.45911072  0.75308624     0.20500
H2186       H  0.38675973  0.03841748  0.77668448     0.18900
H2187       H  0.39759428  0.06396158  0.74830989     0.18800
H2188       H  0.28424606  0.92716722  0.77883615     0.14700
C2189       C  0.33048402  0.53140448  0.58197946     0.30100
C2190       C  0.33469816  0.54488067  0.56830584    -0.36200
C2191       C  0.31316916  0.52701876  0.55758354     0.16100
C2192       C  0.28952048  0.49775747  0.56017951     0.21900
C2193       C  0.28524394  0.98436846  0.57384663    -0.34300
C2194       C  0.30632785  0.50243392  0.58461711     0.16000
O2195       O  0.34764220  0.54410928  0.59355208    -0.26300
C2196       C  0.33402110  0.52331822  0.60385594     0.05800
C2197       C  0.30802347  0.49691759  0.59891858    -0.31200
O2198       O  0.26974862  0.98666694  0.54941451    -0.23000
C2199       C  0.28037696  0.50896577  0.53966074    -0.03000
C2200       C  0.30771252  0.53462405  0.54415956    -0.17500
H2201       H  0.35283287  0.56811431  0.56632644     0.20500
H2202       H  0.26590057  0.96194674  0.57609215     0.18900
H2203       H  0.29326134  0.97631058  0.60484698     0.18800
H2204       H  0.31924623  0.55706690  0.53926938     0.14700
C2205       C  0.50981935  0.64193428  0.58116766     0.30100
C2206       C  0.53149392  0.66683065  0.57316522    -0.36200
C2207       C  0.52372510  0.66789488  0.55873411     0.16100
C2208       C  0.49623602  0.64631151  0.55258620     0.21900
C2209       C  0.47509396  0.62068188  0.56043372    -0.34300
C2210       C  0.48305706  0.61939909  0.57483321     0.16000
O2211       O  0.51029814  0.63891303  0.59527938    -0.26300
C2212       C  0.48376290  0.61370369  0.59799963     0.05800
C2213       C  0.46608350  0.60048427  0.58564350    -0.31200
O2214       O  0.49080086  0.65536989  0.54011423    -0.23000
C2215       C  0.51538505  0.68289198  0.53811730    -0.03000
C2216       C  0.53686356  0.69129276  0.54925157    -0.17500
H2217       H  0.55190666  0.68536099  0.57813498     0.20500
H2218       H  0.45288583  0.60423331  0.55600531     0.18900
H2219       H  0.44277572  0.58148882  0.58494805     0.18800
H2220       H  0.55696056  0.71356277  0.55113651     0.14700
C2221       C  0.01183728  0.87641758  0.78049389     0.30100
C2222       C  0.99415340  0.87982284  0.76965503    -0.36200
C2223       C  0.99688942  0.87038610  0.75568472     0.16100
C2224       C  0.01591568  0.85867109  0.75251748     0.21900
C2225       C  0.03268162  0.85422439  0.76344142    -0.34300
C2226       C  0.02945991  0.86306939  0.77745696     0.16000
O2227       O  0.01766319  0.88930654  0.79347458    -0.26300
C2228       C  0.03888207  0.88367658  0.79904214     0.05800
C2229       C  0.04602204  0.86629950  0.78960759    -0.31200
O2230       O  0.01572207  0.85224667  0.73864122    -0.23000
C2231       C  0.49608182  0.85972903  0.73281223    -0.03000
C2232       C  0.48352251  0.87089205  0.74296792    -0.17500
H2233       H  0.48047768  0.89059288  0.77180310     0.20500
H2234       H  0.04808370  0.84551851  0.76110025     0.18900
H2235       H  0.06537655  0.86246957  0.79043043     0.18800
H2236       H  0.46633288  0.87758750  0.74125448     0.14700
C2237       C  0.04872510  0.65698008  0.77409016     0.30100
C2238       C  0.52178380  0.63528856  0.76689600    -0.36200
C2239       C  0.52047706  0.63918795  0.75196280     0.16100
C2240       C  0.04402497  0.66279730  0.74453925     0.21900
C2241       C  0.07051955  0.68507171  0.75180405    -0.34300
C2242       C  0.07175248  0.68123429  0.76675276     0.16000
O2243       O  0.05701253  0.65467414  0.78738436    -0.26300
C2244       C  0.08568793  0.67798795  0.78872768     0.05800
C2245       C  0.09556107  0.69564107  0.77624414    -0.31200
O2246       O  0.03882516  0.66082490  0.73046079    -0.23000
C2247       C  0.51140250  0.63567428  0.72883063    -0.03000
C2248       C  0.49890331  0.62149566  0.74188938    -0.17500
H2249       H  0.50382228  0.61568802  0.77240040     0.20500
H2250       H  0.08954009  0.70327881  0.74609228     0.18900
H2251       H  0.11855427  0.71380015  0.77383238     0.18800
H2252       H  0.47716487  0.60084778  0.74366559     0.14700
C2253       C  0.15854923  0.00487378  0.75332328     0.30100
C2254       C  0.15556950  0.01492868  0.76707205    -0.36200
C2255       C  0.15429111  0.99658243  0.77864893     0.16100
C2256       C  0.15618520  0.97030902  0.77677960     0.21900
C2257       C  0.15935754  0.96033000  0.76298426    -0.34300
C2258       C  0.16003061  0.97838838  0.75135854     0.16000
O2259       O  0.15935235  0.01825107  0.74109370    -0.26300
C2260       C  0.16093539  0.50004021  0.73102426     0.05800
C2261       C  0.16124855  0.97462098  0.73675907    -0.31200
O2262       O  0.14865945  0.95363962  0.78851708    -0.23000
C2263       C  0.14127802  0.96891161  0.79807806    -0.03000
C2264       C  0.14529075  0.99638032  0.79254635    -0.17500
H2265       H  0.15283937  0.03485618  0.76855143     0.20500
H2266       H  0.15925906  0.93889797  0.76136494     0.18900
H2267       H  0.16314202  0.95671690  0.73108525     0.18800
H2268       H  0.13683651  0.01071901  0.79704701     0.14700
C2269       C  0.21242291  0.64406070  0.75535025     0.30100
C2270       C  0.20174828  0.63286993  0.76921564    -0.36200
C2271       C  0.19772482  0.65269225  0.77857055     0.16100
C2272       C  0.20458679  0.68184974  0.77459899     0.21900
C2273       C  0.21582887  0.69323248  0.76084990    -0.34300
C2274       C  0.21891068  0.67309996  0.75136632     0.16000
O2275       O  0.21209782  0.62736947  0.74426441    -0.26300
C2276       C  0.21801467  0.64566345  0.73298921     0.05800
C2277       C  0.22263095  0.67453158  0.73677350    -0.31200
O2278       O  0.19349428  0.69410959  0.78364077    -0.23000
C2279       C  0.17921061  0.67278125  0.79360800    -0.03000
C2280       C  0.18138557  0.64652925  0.79106013    -0.17500
H2281       H  0.19414402  0.60925832  0.77199641     0.20500
H2282       H  0.21878746  0.71503213  0.75730455     0.18900
H2283       H  0.22505464  0.69261245  0.72968796     0.18800
H2284       H  0.16864767  0.62450031  0.79626106     0.14700
C2285       C  0.15436326  0.50471959  0.55273946     0.30100
C2286       C  0.14567881  0.52068578  0.56237594    -0.36200
C2287       C  0.13652183  0.50790791  0.57612065     0.16100
C2288       C  0.13628571  0.48143375  0.58025974     0.21900
C2289       C  0.14322621  0.96455363  0.57035188    -0.34300
C2290       C  0.15201646  0.47709667  0.55653978     0.16000
O2291       O  0.17063773  0.51618007  0.54090945    -0.26300
C2292       C  0.17834440  0.49537763  0.53688600     0.05800
C2293       C  0.16645038  0.97021247  0.54604375    -0.31200
O2294       O  0.13380581  0.47743443  0.59438491    -0.23000
C2295       C  0.13157903  0.50124687  0.59930801    -0.03000
C2296       C  0.13263804  0.52056126  0.58833858    -0.17500
H2297       H  0.14891662  0.54313673  0.55987078     0.20500
H2298       H  0.14473313  0.94467568  0.57359987     0.18900
H2299       H  0.17249759  0.95229925  0.54636190     0.18800
H2300       H  0.13454413  0.54295482  0.58943330     0.14700
C2301       C  0.17335422  0.64104909  0.58107738     0.30100
C2302       C  0.17576784  0.63497354  0.56649450    -0.36200
C2303       C  0.17321357  0.65446875  0.55652327     0.16100
C2304       C  0.16782518  0.67781751  0.56067429     0.21900
C2305       C  0.16472329  0.68342519  0.57526330    -0.34300
C2306       C  0.16837495  0.66464202  0.58523676     0.16000
O2307       O  0.17739395  0.62717046  0.59214459    -0.26300
C2308       C  0.17560784  0.64240165  0.60357558     0.05800
C2309       C  0.17003978  0.66604386  0.59994523    -0.31200
O2310       O  0.17324557  0.69740948  0.55024231    -0.23000
C2311       C  0.18289881  0.68717592  0.53926076    -0.03000
C2312       C  0.18225800  0.65979165  0.54247576    -0.17500
H2313       H  0.18163954  0.61778415  0.56323073     0.20500
H2314       H  0.16250666  0.70291804  0.57865244     0.18900
H2315       H  0.16710140  0.68153990  0.60707991     0.18800
H2316       H  0.19318363  0.64925075  0.53651646     0.14700
C2317       C  0.00019781  0.84900733  0.92080119     0.30100
C2318       C  0.00524840  0.87603808  0.91399093    -0.36200
C2319       C  0.01476085  0.87950120  0.89955368     0.16100
C2320       C  0.01885028  0.85778309  0.89222590     0.21900
C2321       C  0.01304549  0.83040885  0.89892180    -0.34300
C2322       C  0.00384937  0.82709560  0.91339368     0.16000
O2323       O  0.49571915  0.84324992  0.93474983    -0.26300
C2324       C  0.99646510  0.81725417  0.93632299     0.05800
C2325       C  0.00123892  0.80613812  0.92333725    -0.31200
O2326       O  0.03288025  0.86792867  0.87976503    -0.23000
C2327       C  0.03777235  0.89652269  0.87898386    -0.03000
C2328       C  0.02656974  0.90468958  0.89098099    -0.17500
H2329       H  0.50416668  0.89419086  0.91986403     0.20500
H2330       H  0.01777369  0.81396418  0.89358675     0.18900
H2331       H  0.00496416  0.78685635  0.92168459     0.18800
H2332       H  0.03013094  0.92722433  0.89378157     0.14700
C2333       C  0.05228777  0.67141152  0.88905362     0.30100
C2334       C  0.04059238  0.66142818  0.90289987    -0.36200
C2335       C  0.04466150  0.68434332  0.91285492     0.16100
C2336       C  0.05863888  0.71501141  0.90938220     0.21900
C2337       C  0.07019261  0.72500683  0.89546095    -0.34300
C2338       C  0.06653094  0.70205669  0.88551359     0.16000
O2339       O  0.05577964  0.65455292  0.87910944    -0.26300
C2340       C  0.07248139  0.67434879  0.86891587     0.05800
C2341       C  0.07939265  0.70427896  0.87227874    -0.31200
O2342       O  0.05998394  0.73247491  0.92044045    -0.23000
C2343       C  0.04705024  0.71272222  0.93118992    -0.03000
C2344       C  0.03726704  0.68247930  0.92705776    -0.17500
H2345       H  0.03053255  0.63758304  0.90593257     0.20500
H2346       H  0.08233614  0.74911657  0.89275447     0.18900
H2347       H  0.09577843  0.72515892  0.86696846     0.18800
H2348       H  0.02547098  0.66196353  0.93347726     0.14700
C2349       C  0.35000209  0.85387055  0.89063874     0.30100
C2350       C  0.35941303  0.85828538  0.90512765    -0.36200
C2351       C  0.33745110  0.83905584  0.91507324     0.16100
C2352       C  0.30858357  0.81611740  0.91099834     0.21900
C2353       C  0.29927849  0.81140966  0.89647404    -0.34300
C2354       C  0.32094902  0.83134553  0.88653451     0.16000
O2355       O  0.36416392  0.87381312  0.88036692    -0.26300
C2356       C  0.34400461  0.86460886  0.86951291     0.05800
C2357       C  0.31696935  0.83762417  0.87265807    -0.31200
O2358       O  0.29147107  0.80130826  0.92213035    -0.23000
C2359       C  0.30938205  0.81543614  0.93349489    -0.03000
C2360       C  0.33823849  0.83918648  0.92975092    -0.17500
H2361       H  0.38146082  0.87710949  0.90852781     0.20500
H2362       H  0.27606990  0.79475066  0.89327285     0.18900
H2363       H  0.29544743  0.82785418  0.86678635     0.18800
H2364       H  0.35723618  0.85384071  0.93680358     0.14700
C2365       C  0.18567691  0.65663056  0.88796344     0.30100
C2366       C  0.21203161  0.67258114  0.89663251    -0.36200
C2367       C  0.20883109  0.66449805  0.91124509     0.16100
C2368       C  0.18152740  0.64236838  0.91706234     0.21900
C2369       C  0.15564988  0.62524799  0.90823069    -0.34300
C2370       C  0.15891414  0.63318806  0.89358387     0.16000
O2371       O  0.18154634  0.66519988  0.87507438    -0.26300
C2372       C  0.15183318  0.64664875  0.87223044     0.05800
C2373       C  0.13700590  0.62577399  0.88328669    -0.31200
O2374       O  0.18182924  0.64315396  0.93134289    -0.23000
C2375       C  0.20992752  0.66573910  0.93471339    -0.03000
C2376       C  0.22774741  0.67931807  0.92258266    -0.17500
H2377       H  0.23270306  0.69205573  0.89260980     0.20500
H2378       H  0.13364376  0.60896042  0.91270088     0.18900
H2379       H  0.11253760  0.61076377  0.88453251     0.18800
H2380       H  0.25009232  0.69982690  0.92217030     0.14700
C2381       C  0.17559657  0.00479824  0.89155409     0.30100
C2382       C  0.20003866  0.00643062  0.89963869    -0.36200
C2383       C  0.20413675  0.01906860  0.91356913     0.16100
C2384       C  0.18560670  0.02960051  0.91920823     0.21900
C2385       C  0.16192989  0.02906504  0.91091989    -0.34300
C2386       C  0.15769191  0.01624052  0.89701625     0.16000
O2387       O  0.16381064  0.98824172  0.87967768    -0.26300
C2388       C  0.13816404  0.98930027  0.87737225     0.05800
C2389       C  0.13355476  0.00680130  0.88775825    -0.31200
O2390       O  0.18994070  0.53533962  0.93321148    -0.23000
C2391       C  0.21174543  0.02866998  0.93656236    -0.03000
C2392       C  0.22163812  0.01881393  0.92469714    -0.17500
H2393       H  0.21312798  0.99597353  0.89585450     0.20500
H2394       H  0.14613699  0.53560548  0.91545458     0.18900
H2395       H  0.11311561  0.00852653  0.88936702     0.18800
H2396       H  0.23707350  0.00957635  0.92460154     0.14700
C2397       C  0.32930949  0.97656703  0.91825685     0.30100
C2398       C  0.35286741  0.98290531  0.90838811    -0.36200
C2399       C  0.34370589  0.97440667  0.89395492     0.16100
C2400       C  0.31344308  0.96034233  0.88954265     0.21900
C2401       C  0.28998994  0.95448075  0.89934453    -0.34300
C2402       C  0.29914921  0.96296364  0.91371830     0.16000
O2403       O  0.33247874  0.98244748  0.93229285    -0.26300
C2404       C  0.30385543  0.97231673  0.93676114     0.05800
C2405       C  0.28231513  0.95994256  0.92562232    -0.31200
O2406       O  0.30942618  0.94932064  0.87626503    -0.23000
C2407       C  0.33746610  0.95654217  0.87192330    -0.03000
C2408       C  0.35972818  0.97282876  0.88247883    -0.17500
H2409       H  0.37655591  0.49277899  0.91179054     0.20500
H2410       H  0.26606761  0.94271766  0.89612315     0.18900
H2411       H  0.25779246  0.95105359  0.92614895     0.18800
H2412       H  0.38330504  0.97775059  0.88258131     0.14700
C2413       C  0.47859165  0.80790349  0.08539869     0.30100
C2414       C  0.48366274  0.83167175  0.09503651    -0.36200
C2415       C  0.47299114  0.82280856  0.10911544     0.16100
C2416       C  0.45806543  0.79258188  0.11342609     0.21900
C2417       C  0.45386875  0.76888532  0.10389567    -0.34300
C2418       C  0.46453365  0.77777092  0.08981138     0.16000
O2419       O  0.48540714  0.81085387  0.07156297    -0.26300
C2420       C  0.47562888  0.78219825  0.06703663     0.05800
C2421       C  0.46255953  0.76070450  0.07796063    -0.31200
O2422       O  0.44449518  0.78889767  0.12600654    -0.23000
C2423       C  0.45110029  0.81714072  0.12993712    -0.03000
C2424       C  0.46938206  0.83915361  0.11991875    -0.17500
H2425       H  0.99377097  0.85527296  0.09160157     0.20500
H2426       H  0.44139278  0.74499347  0.10697283     0.18900
H2427       H  0.45325284  0.73609800  0.07727958     0.18800
H2428       H  0.47457576  0.86281713  0.11950848     0.14700
C2429       C  0.31193239  0.82087323  0.08886090     0.30100
C2430       C  0.30691958  0.80987780  0.10308378    -0.36200
C2431       C  0.33155138  0.82532412  0.11282817     0.16100
C2432       C  0.35904269  0.85016914  0.10881045     0.21900
C2433       C  0.36396566  0.86129136  0.09462695    -0.34300
C2434       C  0.33954379  0.84556399  0.08483863     0.16000
O2435       O  0.29358514  0.80730293  0.07772890    -0.26300
C2436       C  0.30949633  0.82327860  0.06632919     0.05800
C2437       C  0.33836130  0.84749307  0.07014165    -0.31200
O2438       O  0.38054286  0.85794365  0.11871935    -0.23000
C2439       C  0.36705851  0.83798582  0.12936079    -0.03000
C2440       C  0.33630140  0.81722096  0.12627733    -0.17500
H2441       H  0.28605691  0.78928433  0.10605911     0.20500
H2442       H  0.38616862  0.87945070  0.09119858     0.18900
H2443       H  0.35667876  0.86259599  0.06306021     0.18800
H2444       H  0.32116210  0.79650264  0.13204668     0.14700
C2445       C  0.33125570  0.00629193  0.42234654     0.30100
C2446       C  0.32445401  0.99888185  0.43698357    -0.36200
C2447       C  0.31700203  0.01801229  0.44513355     0.16100
C2448       C  0.31674265  0.04300581  0.43926546     0.21900
C2449       C  0.32389040  0.05063382  0.42466846    -0.34300
C2450       C  0.33080490  0.03119181  0.41646243     0.16000
O2451       O  0.33499116  0.98928646  0.41250917    -0.26300
C2452       C  0.33686298  0.00322339  0.40006829     0.05800
C2453       C  0.33443325  0.02955398  0.40189728    -0.31200
O2454       O  0.30439664  0.05470577  0.44798070    -0.23000
C2455       C  0.29640460  0.03715834  0.45969637    -0.03000
C2456       C  0.30409198  0.01404731  0.45851555    -0.17500
H2457       H  0.32292963  0.97831669  0.44144525     0.20500
H2458       H  0.32188958  0.06908262  0.41979293     0.18900
H2459       H  0.33332380  0.04407032  0.39364038     0.18800
H2460       H  0.29716641  0.99459221  0.46551907     0.14700
C2461       C  0.30414398  0.82535814  0.41775667     0.30100
C2462       C  0.30863173  0.80388648  0.42534261    -0.36200
C2463       C  0.30209889  0.80157898  0.44008190     0.16100
C2464       C  0.29131657  0.81883124  0.44690681     0.21900
C2465       C  0.28802990  0.84131852  0.43939955    -0.34300
C2466       C  0.29485972  0.84382458  0.42461903     0.16000
O2467       O  0.30689341  0.82962134  0.40374518    -0.26300
C2468       C  0.29970184  0.85143614  0.40151354     0.05800
C2469       C  0.29226558  0.86141742  0.41413936    -0.31200
O2470       O  0.28005301  0.80803174  0.45976569    -0.23000
C2471       C  0.28403358  0.78382388  0.46128208    -0.03000
C2472       C  0.29854673  0.77946918  0.44946742    -0.17500
H2473       H  0.31501730  0.78870382  0.41994486     0.20500
H2474       H  0.27876477  0.85441698  0.44448334     0.18900
H2475       H  0.28554979  0.87873441  0.41536046     0.18800
H2476       H  0.30076705  0.75950777  0.44706517     0.14700
C2477       C  0.31987996  0.84613236  0.24794135     0.30100
C2478       C  0.32829623  0.85556420  0.23362335    -0.36200
C2479       C  0.33555504  0.83690990  0.22501106     0.16100
C2480       C  0.33406061  0.81052761  0.23016169     0.21900
C2481       C  0.32555914  0.80105802  0.24445391    -0.34300
C2482       C  0.31889108  0.82000085  0.25313312     0.16000
O2483       O  0.31569014  0.86202587  0.25816788    -0.26300
C2484       C  0.31216889  0.84615148  0.27014938     0.05800
C2485       C  0.31398954  0.81969041  0.26766459    -0.31200
O2486       O  0.34589890  0.79892597  0.22114221    -0.23000
C2487       C  0.35534924  0.81792339  0.20995883    -0.03000
C2488       C  0.34929724  0.84203869  0.21178201    -0.17500
H2489       H  0.33095723  0.87704518  0.22976651     0.20500
H2490       H  0.32621795  0.78143002  0.24877882     0.18900
H2491       H  0.31380055  0.80376618  0.27550671     0.18800
H2492       H  0.35743174  0.86239475  0.20528238     0.14700
C2493       C  0.99297369  0.78470862  0.43792256     0.30100
C2494       C  0.98217338  0.78486433  0.42392600    -0.36200
C2495       C  0.00246366  0.80863842  0.41490338     0.16100
C2496       C  0.03127816  0.83085782  0.41944361     0.21900
C2497       C  0.04198379  0.83080604  0.43345911    -0.34300
C2498       C  0.02175919  0.80695418  0.44246179     0.16000
O2499       O  0.97948424  0.76240758  0.44732078    -0.26300
C2500       C  0.99960610  0.77032184  0.45817727     0.05800
C2501       C  0.02633427  0.79810559  0.45572883    -0.31200
O2502       O  0.04672452  0.85064339  0.40923165    -0.23000
C2503       C  0.02773896  0.84104806  0.39790287    -0.03000
C2504       C  0.99976985  0.81488058  0.40080461    -0.17500
H2505       H  0.45997317  0.76693812  0.42014623     0.20500
H2506       H  0.06491580  0.84764403  0.43694060     0.18900
H2507       H  0.04749230  0.80815986  0.46189817     0.18800
H2508       H  0.98025201  0.80255203  0.39365835     0.14700
C2509       C  0.13163871  0.99638505  0.42206787     0.30100
C2510       C  0.13329748  0.98634204  0.43593519    -0.36200
C2511       C  0.15786328  0.00723867  0.44462653     0.16100
C2512       C  0.17932874  0.03604912  0.43995814     0.21900
C2513       C  0.17727909  0.04634061  0.42620956    -0.34300
C2514       C  0.15274964  0.02544159  0.41751503     0.16000
O2515       O  0.11338233  0.97908701  0.41156002    -0.26300
C2516       C  0.12267023  0.99730340  0.40013775     0.05800
C2517       C  0.14697120  0.02653669  0.40324256    -0.31200
O2518       O  0.20309234  0.04975198  0.44875843    -0.23000
C2519       C  0.19670984  0.02979350  0.45936532    -0.03000
C2520       C  0.16871122  0.00293927  0.45735952    -0.17500
H2521       H  0.11783229  0.96307000  0.43932318     0.20500
H2522       H  0.19488706  0.56824662  0.42218846     0.18900
H2523       H  0.16037710  0.04478768  0.39578348     0.18800
H2524       H  0.15967274  0.98189209  0.46340959     0.14700
C2525       C  0.49833198  0.82235420  0.25057513     0.30100
C2526       C  0.47278453  0.79978135  0.24293968    -0.36200
C2527       C  0.46877670  0.80731020  0.22887945     0.16100
C2528       C  0.48875235  0.83504219  0.22264974     0.21900
C2529       C  0.51481592  0.85723038  0.23013152    -0.34300
C2530       C  0.01858382  0.84987785  0.24425760     0.16000
O2531       O  0.00312890  0.82240963  0.26456636    -0.26300
C2532       C  0.02675601  0.85029944  0.26726369     0.05800
C2533       C  0.03750878  0.86820492  0.25497535    -0.31200
O2534       O  0.47764391  0.83971929  0.21063019    -0.23000
C2535       C  0.45027857  0.81463188  0.20904506    -0.03000
C2536       C  0.44375968  0.79359324  0.22004271    -0.17500
H2537       H  0.45567274  0.77900177  0.24806293     0.20500
H2538       H  0.52951226  0.87980268  0.22574686     0.18900
H2539       H  0.05449454  0.89234001  0.25433053     0.18800
H2540       H  0.42205186  0.77319086  0.22221122     0.14700
C2541       C  0.52271331  0.65326300  0.07815134     0.30100
C2542       C  0.51690018  0.62700562  0.08593887    -0.36200
C2543       C  0.50809822  0.62611120  0.10039640     0.16100
C2544       C  0.50525818  0.64944417  0.10683631     0.21900
C2545       C  0.51218910  0.67617001  0.09921467    -0.34300
C2546       C  0.52075369  0.67697018  0.08474762     0.16000
O2547       O  0.02609079  0.65660645  0.06400034    -0.26300
C2548       C  0.52641819  0.68290072  0.06150539     0.05800
C2549       C  0.52353586  0.69660493  0.07408684    -0.31200
O2550       O  0.49117121  0.64143782  0.11941543    -0.23000
C2551       C  0.48508882  0.61262500  0.12120678    -0.03000
C2552       C  0.49567783  0.60225656  0.10974826    -0.17500
H2553       H  0.01669058  0.60749662  0.08076352     0.20500
H2554       H  0.50852905  0.69394180  0.10385081     0.18900
H2555       H  0.52077153  0.71661335  0.07505065     0.18800
H2556       H  0.49134114  0.57913611  0.10777214     0.14700
C2557       C  0.36555520  0.49296734  0.10644464     0.30100
C2558       C  0.36176401  0.47969738  0.09269889    -0.36200
C2559       C  0.33624309  0.47569110  0.08475507     0.16100
C2560       C  0.31571076  0.48403106  0.09002658     0.21900
C2561       C  0.31887483  0.49623951  0.10398834    -0.34300
C2562       C  0.34453719  0.50044335  0.11190551     0.16000
O2563       O  0.39084466  0.50449924  0.11427403    -0.26300
C2564       C  0.38594821  0.51916417  0.12505363     0.05800
C2565       C  0.35731847  0.51713389  0.12418120    -0.31200
O2566       O  0.29717409  0.48394915  0.07992835    -0.23000
C2567       C  0.30572722  0.47522585  0.06806212    -0.03000
C2568       C  0.32964282  0.46931209  0.07048286    -0.17500
H2569       H  0.37910450  0.47556784  0.08799527     0.20500
H2570       H  0.30403456  0.50460355  0.10787652     0.18900
H2571       H  0.34911046  0.52983220  0.13045966     0.18800
H2572       H  0.34275711  0.46483230  0.06256207     0.14700
C2573       C  0.37365709  0.51223346  0.22094924     0.30100
C2574       C  0.37211761  0.49023387  0.23071392    -0.36200
C2575       C  0.36479432  0.49341341  0.24500944     0.16100
C2576       C  0.35952097  0.51669520  0.24943991     0.21900
C2577       C  0.35992029  0.53790808  0.23959107    -0.34300
C2578       C  0.36681865  0.53449391  0.22528866     0.16000
O2579       O  0.38570656  0.51729715  0.20790244    -0.26300
C2580       C  0.38605282  0.54282356  0.20370213     0.05800
C2581       C  0.37364547  0.55382180  0.21402540    -0.31200
O2582       O  0.35488285  0.51649118  0.26345510    -0.23000
C2583       C  0.35691230  0.99254401  0.26808704    -0.03000
C2584       C  0.36281478  0.97721189  0.25704841    -0.17500
H2585       H  0.37795543  0.47294879  0.22759061     0.20500
H2586       H  0.35649278  0.55667663  0.24296875     0.18900
H2587       H  0.37458928  0.57585871  0.21416996     0.18800
H2588       H  0.36523808  0.95700213  0.25781529     0.14700
C2589       C  0.16231910  0.67291347  0.10885084     0.30100
C2590       C  0.15209600  0.66505210  0.09455744    -0.36200
C2591       C  0.17470252  0.67789039  0.08398677     0.16100
C2592       C  0.20502814  0.69831256  0.08723424     0.21900
C2593       C  0.21507046  0.70715567  0.10144888    -0.34300
C2594       C  0.19270676  0.69338906  0.11208840     0.16000
O2595       O  0.14745878  0.65622152  0.11998111    -0.26300
C2596       C  0.16850051  0.66525844  0.13040384     0.05800
C2597       C  0.19671216  0.68953739  0.12625964    -0.31200
O2598       O  0.22268355  0.70591036  0.07584508    -0.23000
C2599       C  0.20355534  0.68980367  0.06518668    -0.03000
C2600       C  0.17333143  0.67189610  0.06957757    -0.17500
H2601       H  0.12885771  0.64739004  0.09197811     0.20500
H2602       H  0.23917692  0.72139226  0.10409326     0.18900
H2603       H  0.21855792  0.69745585  0.13165261     0.18800
H2604       H  0.15335147  0.65700699  0.06309814     0.14700
C2605       C  0.18439805  0.54275178  0.08465677     0.30100
C2606       C  0.16051846  0.54174357  0.09299445    -0.36200
C2607       C  0.16772818  0.55160407  0.10745870     0.16100
C2608       C  0.19655561  0.56222927  0.11330787     0.21900
C2609       C  0.22033936  0.56298948  0.10501467    -0.34300
C2610       C  0.21307423  0.55290065  0.09060641     0.16000
O2611       O  0.18280980  0.53455932  0.07091087    -0.26300
C2612       C  0.21091457  0.53947971  0.06800021     0.05800
C2613       C  0.23060219  0.55096619  0.07990088    -0.31200
O2614       O  0.19945168  0.57443692  0.12632700    -0.23000
C2615       C  0.17198245  0.57132284  0.12907183    -0.03000
C2616       C  0.15130853  0.55680081  0.11767877    -0.17500
H2617       H  0.13805126  0.53446165  0.08843556     0.20500
H2618       H  0.24325922  0.57183531  0.10935307     0.18900
H2619       H  0.25431751  0.55646411  0.08063886     0.18800
H2620       H  0.12887243  0.55457106  0.11629657     0.14700
C2621       C  0.15130085  0.53182387  0.25325503     0.30100
C2622       C  0.17743408  0.55184507  0.24542540    -0.36200
C2623       C  0.17273617  0.55493726  0.23077924     0.16100
C2624       C  0.14420714  0.53967982  0.22426686     0.21900
C2625       C  0.11811925  0.51905389  0.23203366    -0.34300
C2626       C  0.12286096  0.51590591  0.24669434     0.16000
O2627       O  0.15047085  0.02583033  0.26711375    -0.26300
C2628       C  0.12109534  0.00568127  0.26950781     0.05800
C2629       C  0.10285120  0.49868748  0.25716787    -0.31200
O2630       O  0.14416218  0.55030244  0.21130445    -0.23000
C2631       C  0.17307011  0.57249201  0.20939275    -0.03000
C2632       C  0.19192581  0.57574779  0.22109637    -0.17500
H2633       H  0.19972097  0.56502822  0.25052977     0.20500
H2634       H  0.09546935  0.50747354  0.22717404     0.18900
H2635       H  0.07855772  0.48253498  0.25600453     0.18800
H2636       H  0.21507630  0.59425037  0.22313096     0.14700
C2637       C  0.98092548  0.62781794  0.41589054     0.30100
C2638       C  0.96174317  0.63323892  0.42493547    -0.36200
C2639       C  0.97203595  0.64213753  0.43917785     0.16100
C2640       C  0.99950996  0.64572170  0.44422807     0.21900
C2641       C  0.01789048  0.63864365  0.43539276    -0.34300
C2642       C  0.00751204  0.62961364  0.42114948     0.16000
O2643       O  0.97909370  0.62589980  0.40166834    -0.26300
C2644       C  0.00450526  0.62578380  0.39774170     0.05800
C2645       C  0.02270804  0.62749236  0.40947482    -0.31200
O2646       O  0.00834641  0.66150545  0.45649032    -0.23000
C2647       C  0.98604798  0.66773770  0.45948179    -0.03000
C2648       C  0.96257148  0.65547147  0.44919122    -0.17500
H2649       H  0.44181305  0.63366753  0.42076848     0.20500
H2650       H  0.04030426  0.64303223  0.43889449     0.18900
H2651       H  0.04583827  0.63110810  0.40928823     0.18800
H2652       H  0.44394693  0.66033061  0.44802320     0.14700
C2653       C  0.16306069  0.67759788  0.44219634     0.30100
C2654       C  0.14379914  0.68223372  0.43287923    -0.36200
C2655       C  0.14805721  0.67965366  0.41814873     0.16100
C2656       C  0.16951046  0.67265062  0.41283344     0.21900
C2657       C  0.18780637  0.66660076  0.42217448    -0.34300
C2658       C  0.18359017  0.66921046  0.43696560     0.16000
O2659       O  0.16851335  0.68672710  0.45576840    -0.26300
C2660       C  0.19273690  0.68410619  0.45940341     0.05800
C2661       C  0.20208301  0.67189880  0.44823355    -0.31200
O2662       O  0.17069664  0.67320970  0.39860914    -0.23000
C2663       C  0.14957955  0.68055452  0.39485479    -0.03000
C2664       C  0.13476141  0.68467897  0.40656730    -0.17500
H2665       H  0.12836225  0.68984855  0.43678248     0.20500
H2666       H  0.20549404  0.66216830  0.41819450     0.18900
H2667       H  0.22361428  0.67190610  0.44755384     0.18800
H2668       H  0.11641054  0.69010204  0.40650028     0.14700
C2669       C  0.48461638  0.65986316  0.22051811     0.30100
C2670       C  0.97667312  0.66854719  0.23357750    -0.36200
C2671       C  0.99007356  0.66477009  0.24612517     0.16100
C2672       C  0.51064717  0.65416112  0.24569534     0.21900
C2673       C  0.51905122  0.64610094  0.23267750    -0.34300
C2674       C  0.50519076  0.64924887  0.22018821     0.16000
O2675       O  0.46923791  0.65432898  0.20831242    -0.26300
C2676       C  0.47951695  0.63951791  0.20002857     0.05800
C2677       C  0.50292602  0.63693813  0.20678440    -0.31200
O2678       O  0.52038509  0.65219344  0.25857058    -0.23000
C2679       C  0.00554248  0.66107681  0.26751478    -0.03000
C2680       C  0.98621358  0.66919828  0.26039631    -0.17500
H2681       H  0.95944762  0.67549419  0.23401922     0.20500
H2682       H  0.53400620  0.63632154  0.23240734     0.18900
H2683       H  0.51167826  0.62193105  0.20361540     0.18800
H2684       H  0.97268149  0.67847355  0.26496873     0.14700
C2685       C  0.16872133  0.69638172  0.22225790     0.30100
C2686       C  0.14788509  0.70330027  0.22908106    -0.36200
C2687       C  0.15476045  0.71377480  0.24343188     0.16100
C2688       C  0.18043429  0.71722431  0.25057899     0.21900
C2689       C  0.20178823  0.71137466  0.24360754    -0.34300
C2690       C  0.19487098  0.70083670  0.22930445     0.16000
O2691       O  0.16370742  0.68071111  0.21007211    -0.26300
C2692       C  0.18706879  0.67527267  0.20921360     0.05800
C2693       C  0.20733643  0.68770057  0.22083334    -0.31200
O2694       O  0.17947147  0.72144639  0.26457220    -0.23000
C2695       C  0.15308084  0.72119022  0.26647389    -0.03000
C2696       C  0.13694438  0.71688947  0.25362933    -0.17500
H2697       H  0.12641693  0.69821000  0.22400649     0.20500
H2698       H  0.22099996  0.71225767  0.24934789     0.18900
H2699       H  0.22616836  0.68392930  0.22357067     0.18800
H2700       H  0.11369827  0.71256632  0.25229118     0.14700
O2701       O  0.57014271  0.18346402  0.35730265    -0.88000
C2702       C  0.60393898  0.13147096  0.33822808     0.88100
Mg2703     Mg  0.52419790  0.17647984  0.35442750     1.58100
O2704       O  0.63666867  0.20728040  0.32556718    -0.87700
O2705       O  0.61899754  0.21858065  0.35691481    -0.75000
C2706       C  0.51510386  0.16754923  0.28269463     0.93100
O2707       O  0.53199971  0.11255127  0.34715474    -0.74800
O2708       O  0.49614703  0.16049217  0.29305805    -0.82300
Mg2709     Mg  0.57286741  0.14291865  0.36189511     1.58000
C2710       C  0.63869212  0.21617045  0.28076631     0.93000
O2711       O  0.61015251  0.16813606  0.37839730    -0.80600
H2712       H  0.65922850  0.25272431  0.32895986    -0.05900
C2713       C  0.56280865  0.14023441  0.30350739     0.88000
O2714       O  0.54242937  0.21596499  0.33809328    -0.75100
O2715       O  0.60496588  0.15341027  0.34480254    -0.87900
O2716       O  0.65058796  0.20918787  0.29113434    -0.80700
C2717       C  0.68956087  0.17920963  0.32496937     0.93200
C2718       C  0.63874472  0.17893078  0.38003138     0.93000
Mg2719     Mg  0.58130168  0.20679617  0.30089791     1.58000
O2720       O  0.54375541  0.18045353  0.28483254    -0.80600
O2721       O  0.62229912  0.23767922  0.31563863    -0.74800
O2722       O  0.67822312  0.18044198  0.33710393    -0.80700
O2723       O  0.54120983  0.13207101  0.38047176    -0.82400
O2724       O  0.97367311  0.16830235  0.32644117    -0.80700
C2725       C  0.64048160  0.23329111  0.32351994     0.87400
O2726       O  0.54850970  0.19683772  0.31802170    -0.87900
O2727       O  0.58380546  0.16662022  0.30620291    -0.88000
O2728       O  0.53497619  0.13140152  0.30666440    -0.75000
Mg2729     Mg  0.64622732  0.19719641  0.34664554     1.58000
O2730       O  0.67753963  0.18011011  0.31303279    -0.82400
H2731       H  0.58576308  0.22585584  0.36529644    -0.06100
O2732       O  0.51683518  0.14286874  0.33788647    -0.87700
H2733       H  0.49455828  0.09755184  0.33421332    -0.05900
H2734       H  0.55731754  0.24025712  0.31961104    -0.06100
C2735       C  0.51334108  0.11692110  0.33966704     0.87400
C2736       C  0.59119355  0.20975783  0.36012110     0.88000
C2737       C  0.54965208  0.21854509  0.32488660     0.88100
H2738       H  0.56831615  0.12405383  0.29848848    -0.06100
O2739       O  0.61105293  0.13352544  0.32504751    -0.75100
Mg2740     Mg  0.50708961  0.15243108  0.31659340     1.58000
H2741       H  0.59629694  0.10999031  0.34371887    -0.06100
C2742       C  0.51674648  0.13267843  0.38296271     0.93000
O2743       O  0.47580602  0.16915151  0.35057661    -0.82400
C2744       C  0.96269794  0.16924324  0.33881284     0.93100
O2745       O  0.65694982  0.18689826  0.36939403    -0.82300
Mg2746     Mg  0.62963102  0.17353128  0.30919341     1.58200
O2747       O  0.50474101  0.14220775  0.37365171    -0.80700
O2748       O  0.61335135  0.21580480  0.28206280    -0.82400
C2749       C  0.68552619  0.15014399  0.20002386    -0.10500
C2750       C  0.68480606  0.12551408  0.20722283    -0.04300
C2751       C  0.67986827  0.09882797  0.20003564    -0.10500
C2752       C  0.67735868  0.09715157  0.18483133     0.10500
C2753       C  0.67799698  0.12194743  0.17725470    -0.02200
C2754       C  0.68153127  0.14831357  0.18489611     0.10300
C2755       C  0.68121961  0.17213290  0.17720279    -0.12300
C2756       C  0.67680610  0.16993549  0.16232718    -0.12300
C2757       C  0.67318772  0.14412848  0.15461609     0.10300
C2758       C  0.67441814  0.12011597  0.16203601    -0.02200
C2759       C  0.67460432  0.07173315  0.17700366    -0.12400
C2760       C  0.67277064  0.07070767  0.16193079    -0.12400
C2761       C  0.67228859  0.09444099  0.15423873     0.10500
C2762       C  0.66895921  0.09317038  0.13900497    -0.10500
C2763       C  0.66587426  0.11610518  0.13220427    -0.04300
C2764       C  0.66806769  0.14138165  0.13963937    -0.10500
H2765       H  0.68419455  0.19260256  0.18265099     0.07800
H2766       H  0.67619174  0.18862124  0.15688293     0.07800
H2767       H  0.67440700  0.05270326  0.18251258     0.07900
H2768       H  0.67094548  0.05084317  0.15633030     0.07900
H2769       H  0.68589759  0.12623250  0.21890150     0.04400
H2770       H  0.66383535  0.11539751  0.12054403     0.04400
C2771       C  0.90917097  0.06420740  0.19333377    -0.10500
C2772       C  0.93251779  0.09125262  0.19936163    -0.04300
C2773       C  0.95664099  0.11329397  0.19131731    -0.10500
C2774       C  0.95813222  0.10827659  0.17639722     0.10500
C2775       C  0.93442448  0.08088902  0.16988480    -0.02200
C2776       C  0.90984926  0.05869970  0.17840553     0.10300
C2777       C  0.88659253  0.03205093  0.17174518    -0.12300
C2778       C  0.88711312  0.02718563  0.15696433    -0.12300
C2779       C  0.91110459  0.04863843  0.14834494     0.10300
C2780       C  0.93529912  0.07560607  0.15485660    -0.02200
C2781       C  0.98226686  0.12959307  0.16784803    -0.12400
C2782       C  0.98337293  0.12415429  0.15310424    -0.12400
C2783       C  0.96018741  0.09736064  0.14636169     0.10500
C2784       C  0.96125154  0.09121267  0.13144631    -0.10500
C2785       C  0.93714796  0.06433997  0.12539322    -0.04300
C2786       C  0.91188438  0.04363340  0.13339397    -0.10500
H2787       H  0.86768599  0.01485863  0.17793285     0.07800
H2788       H  0.86872496  0.00615151  0.15236214     0.07800
H2789       H  0.00055538  0.15057052  0.17256413     0.07900
H2790       H  0.00268987  0.14106396  0.14703885     0.07900
H2791       H  0.93244217  0.09495375  0.21090213     0.04400
H2792       H  0.93699440  0.06037506  0.11388614     0.04400
O2793       O  0.54805842  0.41617766  0.35836387    -0.88000
C2794       C  0.63847277  0.45075579  0.34728081     0.88100
Mg2795     Mg  0.51180735  0.37093705  0.35210077     1.58100
O2796       O  0.60156203  0.48389105  0.32811392    -0.87700
O2797       O  0.56070129  0.46467699  0.35653083    -0.75000
C2798       C  0.53496726  0.36311426  0.28197781     0.93100
O2799       O  0.58474419  0.37944643  0.35340109    -0.74800
O2800       O  0.52429438  0.34533111  0.29271476    -0.82300
Mg2801     Mg  0.58878575  0.41896543  0.36754613     1.58000
C2802       C  0.61050917  0.48896226  0.28317517     0.93000
O2803       O  0.59571036  0.45600817  0.38407930    -0.80600
H2804       H  0.57655856  0.50485307  0.32807338    -0.05900
C2805       C  0.60488918  0.41207829  0.30831970     0.88000
O2806       O  0.49849529  0.39083328  0.33305078    -0.75100
O2807       O  0.61622390  0.45240498  0.35175053    -0.87900
O2808       O  0.62807927  0.49853047  0.29425763    -0.80700
C2809       C  0.68142362  0.03724513  0.33505743     0.93200
C2810       C  0.61289632  0.48492138  0.38546693     0.93000
Mg2811     Mg  0.55706704  0.42924671  0.29992100     1.58000
O2812       O  0.55065821  0.39218524  0.28345226    -0.80600
O2813       O  0.56105659  0.46867467  0.31420021    -0.74800
O2814       O  0.66364538  0.02726684  0.34590614    -0.80700
O2815       O  0.56106212  0.38397457  0.38430930    -0.82400
O2816       O  0.98388508  0.32072849  0.32138060    -0.80700
C2817       C  0.58003095  0.48689112  0.32355437     0.87400
O2818       O  0.52948693  0.39555407  0.31555340    -0.87900
O2819       O  0.59774162  0.43230592  0.30931671    -0.88000
O2820       O  0.58600403  0.38413860  0.31106084    -0.75000
Mg2821     Mg  0.61211157  0.49306928  0.35074837     1.58000
O2822       O  0.67374698  0.02401537  0.32272929    -0.82400
H2823       H  0.51822868  0.43082002  0.36212368    -0.06100
O2824       O  0.54476735  0.36505332  0.33932217    -0.87700
H2825       H  0.56893973  0.34324816  0.33952871    -0.05900
H2826       H  0.49564588  0.40520106  0.31305133    -0.06100
C2827       C  0.56582328  0.36147248  0.34399374     0.87400
C2828       C  0.54138155  0.43679020  0.35925487     0.88000
C2829       C  0.50725985  0.39718030  0.32011434     0.88100
H2830       H  0.62813279  0.41848114  0.30540999    -0.06100
O2831       O  0.64751460  0.45737660  0.33440866    -0.75100
Mg2832     Mg  0.53479578  0.35546313  0.31670510     1.58000
H2833       H  0.64992344  0.44260303  0.35436979    -0.06100
C2834       C  0.53597703  0.35862250  0.38433222     0.93000
O2835       O  0.97323104  0.32421921  0.34447049    -0.82400
C2836       C  0.96614136  0.31066836  0.33220651     0.93100
O2837       O  0.62351263  0.50257023  0.37467486    -0.82300
Mg2838     Mg  0.63425439  0.47728636  0.31541738     1.58200
O2839       O  0.51811331  0.34898453  0.37331457    -0.80700
O2840       O  0.58492836  0.46411943  0.28317281    -0.82400
O2841       O  0.84669531  0.41685382  0.31189159    -0.88000
C2842       C  0.78344258  0.44505220  0.31908722     0.88100
Mg2843     Mg  0.84068671  0.37300707  0.31831361     1.58100
O2844       O  0.84962687  0.48296350  0.34090453    -0.87700
O2845       O  0.87903961  0.46621242  0.31419754    -0.75000
C2846       C  0.80236646  0.36467269  0.38713984     0.93100
O2847       O  0.77323130  0.37511713  0.31381849    -0.74800
O2848       O  0.79955941  0.34815052  0.37616913    -0.82300
Mg2849     Mg  0.80871607  0.41583409  0.30063333     1.58000
C2850       C  0.83597164  0.48814629  0.38608292     0.93000
O2851       O  0.83955580  0.45286526  0.28493200    -0.71600
H2852       H  0.89513208  0.50841339  0.34332582    -0.05900
C2853       C  0.77546106  0.40762748  0.35871568     0.88000
O2854       O  0.87036413  0.39538931  0.33860439    -0.75100
O2855       O  0.80870833  0.44842830  0.31575892    -0.87900
O2856       O  0.83066359  0.49768942  0.37423467    -0.80700
C2857       C  0.82084881  0.03253190  0.33117397     0.93200
C2858       C  0.84995147  0.48134590  0.28300493     0.93000
Mg2859     Mg  0.83970536  0.43129615  0.37015866     1.58000
O2860       O  0.80940033  0.39271170  0.38606722    -0.80600
O2861       O  0.87490414  0.47263468  0.35709003    -0.74800
O2862       O  0.82976690  0.02219542  0.32077705    -0.80700
O2863       O  0.80915676  0.38318456  0.28433019    -0.82400
O2864       O  0.82099813  0.32525442  0.34900709    -0.80700
C2865       C  0.87396086  0.48906913  0.34698195     0.87400
O2866       O  0.84061552  0.39930817  0.35455193    -0.87900
O2867       O  0.80172317  0.43006564  0.35873560    -0.88000
O2868       O  0.77037394  0.38045102  0.35633474    -0.75000
Mg2869     Mg  0.85134652  0.49105119  0.31786837     1.58000
O2870       O  0.81432372  0.51999923  0.34355817    -0.82400
H2871       H  0.89204161  0.43453410  0.31007323    -0.06100
O2872       O  0.79908276  0.36403675  0.32934971    -0.87700
H2873       H  0.75340639  0.33924451  0.32753868    -0.05900
H2874       H  0.88456940  0.41267605  0.35878017    -0.06100
C2875       C  0.77450293  0.35836523  0.32366942     0.87400
C2876       C  0.87321057  0.43882145  0.31184658     0.88000
C2877       C  0.86583550  0.40274813  0.35109565     0.88100
H2878       H  0.75622891  0.41125387  0.36055237    -0.06100
O2879       O  0.77846549  0.45179454  0.33161294    -0.75100
Mg2880     Mg  0.79872454  0.35618688  0.35221449     1.58000
H2881       H  0.76493453  0.43537768  0.31128324    -0.06100
C2882       C  0.81229878  0.35967230  0.28438714     0.93000
O2883       O  0.83419383  0.32721818  0.32591303    -0.82400
C2884       C  0.82865892  0.31463366  0.33823405     0.93100
O2885       O  0.85296689  0.49949648  0.29336136    -0.82300
Mg2886     Mg  0.80790219  0.47416690  0.35185156     1.58200
O2887       O  0.81799803  0.34976531  0.29598866    -0.80700
O2888       O  0.83850447  0.46420298  0.38655582    -0.82400
C2889       C  0.92600411  0.31475912  0.20000192    -0.10500
C2890       C  0.90194502  0.31504721  0.20729446    -0.04300
C2891       C  0.87927168  0.31856700  0.20024136    -0.10500
C2892       C  0.88085343  0.32227081  0.18500192     0.10500
C2893       C  0.90462873  0.32073897  0.17729596    -0.02200
C2894       C  0.92722189  0.31692755  0.18485196     0.10300
C2895       C  0.95002049  0.31471567  0.17707234    -0.12300
C2896       C  0.95064279  0.31587546  0.16208691    -0.12300
C2897       C  0.92895295  0.32006119  0.15437785     0.10300
C2898       C  0.90586835  0.32292947  0.16199872    -0.02200
C2899       C  0.85938705  0.32681001  0.17719066    -0.12400
C2900       C  0.86129618  0.33011489  0.16216676    -0.12400
C2901       C  0.88412320  0.32799090  0.15433799     0.10500
C2902       C  0.88641605  0.33105779  0.13908902    -0.10500
C2903       C  0.90891788  0.32753452  0.13197945    -0.04300
C2904       C  0.92990832  0.32194505  0.13921925    -0.10500
H2905       H  0.96728840  0.31152210  0.18253491     0.07800
H2906       H  0.96849771  0.31379955  0.15655562     0.07800
H2907       H  0.84093548  0.32788773  0.18264425     0.07900
H2908       H  0.84450849  0.33399797  0.15667767     0.07900
H2909       H  0.90153955  0.31359747  0.21895580     0.04400
H2910       H  0.90985022  0.32865065  0.12030209     0.04400
O2911       O  0.78315147  0.02087260  0.97875158    -0.88000
C2912       C  0.69261220  0.46380161  0.98946111     0.88100
Mg2913     Mg  0.82018857  0.01229124  0.98404471     1.58100
O2914       O  0.72777269  0.03319654  0.00899021    -0.87700
O2915       O  0.76953817  0.05612237  0.98099620    -0.75000
C2916       C  0.79653669  0.97975662  0.05365630     0.93100
O2917       O  0.74684116  0.44691918  0.98258235    -0.74800
O2918       O  0.80690325  0.47293291  0.04257810    -0.82300
Mg2919     Mg  0.74253226  0.48274173  0.96932706     1.58000
C2920       C  0.71955195  0.03061421  0.05416725     0.93000
O2921       O  0.73625570  0.51306971  0.95327415    -0.80600
H2922       H  0.75235760  0.07904802  0.00942469    -0.05900
C2923       C  0.72588694  0.45841100  0.02744233     0.88000
O2924       O  0.83322462  0.04418704  0.00386100    -0.75100
O2925       O  0.71487301  0.48780241  0.98526442    -0.87900
O2926       O  0.70146269  0.02227772  0.04320842    -0.80700
C2927       C  0.64784068  0.50399036  0.00112003     0.93200
C2928       C  0.71928360  0.52489892  0.95151355     0.93000
Mg2929     Mg  0.77297303  0.02331019  0.03676336     1.58000
O2930       O  0.78045523  0.99289901  0.05280582    -0.80600
O2931       O  0.76827333  0.05846933  0.02291626    -0.74800
O2932       O  0.66611044  0.51151604  0.99050651    -0.80700
O2933       O  0.76994111  0.47675122  0.95237331    -0.82400
O2934       O  0.84903632  0.99031979  0.01400343    -0.80700
C2935       C  0.74914831  0.05768097  0.01369773     0.87400
O2936       O  0.80085456  0.01760056  0.02067986    -0.87900
O2937       O  0.73221858  0.48562971  0.02746901    -0.88000
O2938       O  0.74544611  0.45027202  0.02415330    -0.75000
Mg2939     Mg  0.71781589  0.03187641  0.98628169     1.58000
O2940       O  0.65556765  0.50086854  0.01386813    -0.82400
H2941       H  0.81252875  0.06549539  0.97570134    -0.06100
O2942       O  0.78755916  0.47266409  0.99618994    -0.87700
H2943       H  0.76415549  0.42679846  0.99552064    -0.05900
H2944       H  0.83502515  0.06049575  0.02412218    -0.06100
C2945       C  0.76659958  0.44801791  0.99145190     0.87400
C2946       C  0.78936415  0.04802770  0.97825285     0.88000
C2947       C  0.82356646  0.04138633  0.01666586     0.88100
H2948       H  0.70270705  0.44086994  0.02992172    -0.06100
O2949       O  0.68296894  0.46116971  0.00226623    -0.75100
Mg2950     Mg  0.79704065  0.47300342  0.01873322     1.58000
H2951       H  0.68161445  0.44432626  0.98217589    -0.06100
C2952       C  0.79586303  0.47850793  0.95122900     0.93000
O2953       O  0.85897738  0.00346600  0.99082706    -0.82400
C2954       C  0.86656018  0.99754810  0.00302773     0.93100
O2955       O  0.70719617  0.53107072  0.96211931    -0.82300
Mg2956     Mg  0.69540756  0.49418157  0.02156394     1.58200
O2957       O  0.81483408  0.48690179  0.96179633    -0.80700
O2958       O  0.74486438  0.03054783  0.05385019    -0.82400
O2959       O  0.78227463  0.25588876  0.02342000    -0.88000
C2960       C  0.69265606  0.22708729  0.01161784     0.88100
Mg2961     Mg  0.82088281  0.30008209  0.01855402     1.58100
O2962       O  0.72465852  0.18675754  0.99423829    -0.87700
O2963       O  0.76480407  0.20615906  0.02297859    -0.75000
C2964       C  0.80047563  0.30420286  0.94826339     0.93100
O2965       O  0.75003730  0.29748219  0.01963166    -0.74800
O2966       O  0.81190328  0.32257757  0.95896489    -0.82300
Mg2967     Mg  0.74354816  0.25603925  0.03272807     1.58000
C2968       C  0.71880129  0.18069959  0.94910450     0.93000
O2969       O  0.73874002  0.21832431  0.04746211    -0.80600
H2970       H  0.74809158  0.16427463  0.99546378    -0.05900
C2971       C  0.72807704  0.26095192  0.97372131     0.88000
O2972       O  0.83367178  0.27921950  0.99965101    -0.75100
O2973       O  0.71423029  0.22435604  0.01619943    -0.87900
O2974       O  0.69980753  0.17148832  0.95956798    -0.80700
C2975       C  0.64456511  0.13849033  0.00019107     0.93200
C2976       C  0.71376124  0.19441523  0.05024315     0.93000
Mg2977     Mg  0.77325711  0.23936136  0.96687131     1.58000
O2978       O  0.78239916  0.27559178  0.94982655    -0.80600
O2979       O  0.76624074  0.20002760  0.98165808    -0.74800
O2980       O  0.66161463  0.14978097  0.01129783    -0.80700
O2981       O  0.77268164  0.28750596  0.05042241    -0.82400
O2982       O  0.85091033  0.34785634  0.98831892    -0.80700
C2983       C  0.74595668  0.18257637  0.99053746     0.87400
O2984       O  0.80140780  0.27327451  0.98261092    -0.87900
O2985       O  0.73316948  0.23934291  0.97494363    -0.88000
O2986       O  0.74838533  0.28856966  0.97658872    -0.75000
Mg2987     Mg  0.71293004  0.18103998  0.01671362     1.58000
O2988       O  0.65302301  0.15003776  0.98768335    -0.82400
H2989       H  0.80900019  0.23785550  0.02789520    -0.06100
O2990       O  0.78920902  0.30831225  0.00567541    -0.87700
H2991       H  0.76871885  0.33379413  0.00610500    -0.05900
H2992       H  0.83476208  0.26307274  0.97969853    -0.06100
C2993       C  0.76970189  0.31430908  0.01036051     0.87400
C2994       C  0.78643081  0.23372799  0.02489384     0.88000
C2995       C  0.82382218  0.27171466  0.98687283     0.88100
H2996       H  0.70539982  0.25611357  0.97046209    -0.06100
O2997       O  0.68243096  0.21865362  0.99891685    -0.75100
Mg2998     Mg  0.79966634  0.31518759  0.98294352     1.58000
H2999       H  0.68260982  0.23722321  0.01845684    -0.06100
C3000       C  0.79903194  0.31107913  0.05152424     0.93000
O3001       O  0.86120160  0.34596895  0.01165658    -0.82400
C3002       C  0.86867393  0.35837945  0.99926857     0.93100
O3003       O  0.69786068  0.17579360  0.04028064    -0.82300
Mg3004     Mg  0.69440786  0.19541486  0.98055230     1.58200
O3005       O  0.81672022  0.32202583  0.04062409    -0.80700
O3006       O  0.74500473  0.20459191  0.95013793    -0.82400
O3007       O  0.52523750  0.26581521  0.02423868    -0.88000
C3008       C  0.96602427  0.18006353  0.00748365     0.88100
Mg3009     Mg  0.51962233  0.30575850  0.02170893     1.58100
O3010       O  0.53798135  0.21793865  0.99064481    -0.87700
O3011       O  0.55848072  0.24981047  0.02164940    -0.75000
C3012       C  0.49872009  0.30527917  0.95053809     0.93100
O3013       O  0.95270286  0.23521104  0.01816926    -0.74800
O3014       O  0.49181354  0.31453184  0.96206298    -0.82300
Mg3015     Mg  0.98506735  0.22439738  0.03119816     1.58000
C3016       C  0.54014989  0.22149886  0.94537069     0.93000
O3017       O  0.01265137  0.21148470  0.04637084    -0.80600
H3018       H  0.58374796  0.23949952  0.99203006    -0.05900
C3019       C  0.96914506  0.22721875  0.97142900     0.88000
O3020       O  0.55453630  0.32353174  0.00324038    -0.75100
O3021       O  0.98989251  0.19975439  0.01337936    -0.87900
O3022       O  0.52970786  0.20156651  0.95533156    -0.80700
C3023       C  0.00667598  0.13667920  0.99081911     0.93200
C3024       C  0.02293176  0.19291450  0.04696688     0.93000
Mg3025     Mg  0.53599320  0.27281340  0.96615691     1.58000
O3026       O  0.50959295  0.28712061  0.95080097    -0.80600
O3027       O  0.56736249  0.26130114  0.97961411    -0.74800
O3028       O  0.01178697  0.15044909  0.00303349    -0.80700
O3029       O  0.97922743  0.24863075  0.05030695    -0.82400
O3030       O  0.50447370  0.34592582  0.99502113    -0.80700
C3031       C  0.56373882  0.23917795  0.98750328     0.87400
O3032       O  0.53008591  0.29748179  0.98403214    -0.87900
O3033       O  0.99549516  0.23152192  0.97282629    -0.88000
O3034       O  0.96193044  0.24699668  0.97562012    -0.75000
Mg3035     Mg  0.53285054  0.20033085  0.01220794     1.58000
O3036       O  0.00481509  0.14879654  0.97915046    -0.82400
H3037       H  0.56934678  0.29160792  0.02998616    -0.06100
O3038       O  0.98151875  0.27850336  0.00700082    -0.87700
H3039       H  0.93570121  0.25672237  0.00594211    -0.05900
H3040       H  0.57404048  0.33067271  0.98349140    -0.06100
C3041       C  0.95591700  0.25719752  0.01029396     0.87400
C3042       C  0.55158764  0.27001485  0.02556365     0.88000
C3043       C  0.55362010  0.31783609  0.98986040     0.88100
H3044       H  0.95159893  0.20577265  0.96678542    -0.06100
O3045       O  0.96487769  0.17456505  0.99407025    -0.75100
Mg3046     Mg  0.98645415  0.29611271  0.98537313     1.58000
H3047       H  0.94546178  0.16777033  0.01382114    -0.06100
C3048       C  0.98179663  0.27478735  0.05246593     0.93000
O3049       O  0.51318557  0.34763285  0.01875397    -0.82400
C3050       C  0.50928830  0.35932276  0.00737108     0.93100
O3051       O  0.52824459  0.18197616  0.03556772    -0.82300
Mg3052     Mg  0.00019184  0.19137207  0.97580936     1.58200
O3053       O  0.99133556  0.29522280  0.04273966    -0.80700
O3054       O  0.54284886  0.24794268  0.94697163    -0.82400
O3055       O  0.68340858  0.06505218  0.64150751    -0.88000
C3056       C  0.62798982  0.09586967  0.65936151     0.88100
Mg3057     Mg  0.67846899  0.01994831  0.64422467     1.58100
O3058       O  0.70330663  0.13129492  0.67348797    -0.87700
O3059       O  0.71696936  0.11434399  0.64224617    -0.75000
C3060       C  0.66569311  0.00965208  0.71584324     0.93100
O3061       O  0.61206603  0.02493897  0.64998734    -0.74800
O3062       O  0.65803202  0.49068590  0.70528341    -0.82300
Mg3063     Mg  0.64245724  0.06626131  0.63592955     1.58000
C3064       C  0.71168490  0.13265208  0.71831639     0.93000
O3065       O  0.66767460  0.10372378  0.61958020    -0.80600
H3066       H  0.74870661  0.15394630  0.67055998    -0.05900
C3067       C  0.63663980  0.05600064  0.69448539     0.88000
O3068       O  0.71642705  0.03884756  0.66146992    -0.75100
O3069       O  0.65069581  0.09808495  0.65318607    -0.87900
O3070       O  0.70236956  0.14400291  0.70859608    -0.80700
C3071       C  0.67229867  0.18185517  0.67345474     0.93200
C3072       C  0.67578588  0.13185057  0.61829153     0.93000
Mg3073     Mg  0.70357256  0.07582222  0.69785131     1.58000
O3074       O  0.67829589  0.03833907  0.71391910    -0.80600
O3075       O  0.73369220  0.11676048  0.68340304    -0.74800
O3076       O  0.67637760  0.17170875  0.66147599    -0.80700
O3077       O  0.63415440  0.03495864  0.61745298    -0.82400
O3078       O  0.66736960  0.46895016  0.67212398    -0.80700
C3079       C  0.72928646  0.13511062  0.67573705     0.87400
O3080       O  0.69460397  0.04311102  0.68088721    -0.87900
O3081       O  0.66290822  0.07738172  0.69225774    -0.88000
O3082       O  0.62839827  0.02832937  0.69105543    -0.75000
Mg3083     Mg  0.69374082  0.14021413  0.65211702     1.58000
O3084       O  0.67147299  0.16924329  0.68543568    -0.82400
H3085       H  0.72618485  0.08203739  0.63417859    -0.06100
O3086       O  0.64261837  0.01071354  0.65989774    -0.87700
H3087       H  0.59713600  0.98722878  0.66244498    -0.05900
H3088       H  0.73834635  0.05287849  0.68076170    -0.06100
C3089       C  0.61655643  0.00647158  0.65748444     0.87400
C3090       C  0.70937106  0.08672158  0.63904749     0.88000
C3091       C  0.71723503  0.04503311  0.67476640     0.88100
H3092       H  0.61999104  0.06105943  0.69925897    -0.06100
O3093       O  0.62903883  0.10256590  0.67260760    -0.75100
Mg3094     Mg  0.65065950  0.00133408  0.68155221     1.58000
H3095       H  0.60668331  0.08744230  0.65346048    -0.06100
C3096       C  0.63661497  0.01162911  0.61451665     0.93000
O3097       O  0.67428017  0.97305833  0.64819589    -0.82400
C3098       C  0.67211670  0.45947335  0.66005107     0.93100
O3099       O  0.68274552  0.14976942  0.62917834    -0.82300
Mg3100     Mg  0.66804047  0.12248975  0.68933932     1.58200
O3101       O  0.64651514  0.99983147  0.62376361    -0.80700
O3102       O  0.71247071  0.10806520  0.71632631    -0.82400
C3103       C  0.63436588  0.15515187  0.86201342    -0.10500
C3104       C  0.61177352  0.15992402  0.86820563    -0.04300
C3105       C  0.59342287  0.16799479  0.86018929    -0.10500
C3106       C  0.59681469  0.17054888  0.84503813     0.10500
C3107       C  0.62027832  0.16669869  0.83843205    -0.02200
C3108       C  0.63969074  0.15976617  0.84699883     0.10300
C3109       C  0.66343576  0.15733551  0.84028190    -0.12300
C3110       C  0.66839738  0.16191207  0.82548202    -0.12300
C3111       C  0.64906319  0.16791332  0.81677683     0.10300
C3112       C  0.62436481  0.16981248  0.82324007    -0.02200
C3113       C  0.57726407  0.17621323  0.83632218    -0.12400
C3114       C  0.58032086  0.17773903  0.82131436    -0.12400
C3115       C  0.60375105  0.17478963  0.81454205     0.10500
C3116       C  0.60781960  0.17739624  0.79936390    -0.10500
C3117       C  0.63313290  0.17688619  0.79347778    -0.04300
C3118       C  0.65380815  0.17254341  0.80178198    -0.10500
H3119       H  0.67858033  0.15218240  0.84647027     0.07800
H3120       H  0.68739452  0.16042359  0.82087333     0.07800
H3121       H  0.55910422  0.17898194  0.84107485     0.07900
H3122       H  0.56458248  0.18191009  0.81504175     0.07900
H3123       H  0.60900674  0.15828372  0.87981227     0.04400
H3124       H  0.63621556  0.17855852  0.78189584     0.04400
C3125       C  0.61249602  0.46558319  0.86852083    -0.10500
C3126       C  0.58648043  0.44462023  0.87606898    -0.04300
C3127       C  0.56153932  0.41964368  0.86931276    -0.10500
C3128       C  0.56186772  0.41618279  0.85413631     0.10500
C3129       C  0.58804126  0.43739950  0.84618906    -0.02200
C3130       C  0.61376157  0.46178510  0.85344427     0.10300
C3131       C  0.63973621  0.48178839  0.84541076    -0.12300
C3132       C  0.64057432  0.47811319  0.83050235    -0.12300
C3133       C  0.61530611  0.45459709  0.82308844     0.10300
C3134       C  0.58863743  0.43402256  0.83096789    -0.02200
C3135       C  0.53668249  0.39249418  0.84666559    -0.12400
C3136       C  0.53698476  0.38956756  0.83167093    -0.12400
C3137       C  0.56265718  0.40993607  0.82363903     0.10500
C3138       C  0.56356283  0.40700195  0.80847162    -0.10500
C3139       C  0.58971825  0.42766984  0.80110457    -0.04300
C3140       C  0.61567967  0.45062745  0.80799368    -0.10500
H3141       H  0.65963179  0.50051252  0.85061956     0.07800
H3142       H  0.66108185  0.49397258  0.82476623     0.07800
H3143       H  0.51632326  0.37626304  0.85237597     0.07900
H3144       H  0.51700470  0.37111266  0.82637519     0.07900
H3145       H  0.58648042  0.44683472  0.88769985     0.04400
H3146       H  0.58988500  0.42574184  0.78944074     0.04400
O3147       O  0.92154185  0.09361586  0.64223693    -0.88000
C3148       C  0.89395454  0.00563151  0.65481452     0.88100
Mg3149     Mg  0.96750213  0.13214225  0.64507092     1.58100
O3150       O  0.86330148  0.04307883  0.67530279    -0.87700
O3151       O  0.87312840  0.07925595  0.64596281    -0.75000
C3152       C  0.99511342  0.12512055  0.71476775     0.93100
O3153       O  0.96159099  0.06021224  0.64471679    -0.74800
O3154       O  0.50989800  0.13446351  0.70300379    -0.82300
Mg3155     Mg  0.91810029  0.05276170  0.63284700     1.58000
C3156       C  0.87004455  0.04241688  0.72026436     0.93000
O3157       O  0.87724028  0.04416445  0.61886945    -0.80600
H3158       H  0.84077741  0.06651385  0.67634359    -0.05900
C3159       C  0.94236080  0.04825496  0.69197384     0.88000
O3160       O  0.95231436  0.14867545  0.66490019    -0.75100
O3161       O  0.88944312  0.02609575  0.65022720    -0.87900
O3162       O  0.85796493  0.02357445  0.70971362    -0.80700
C3163       C  0.81142627  0.46162697  0.67250913     0.93200
C3164       C  0.84824978  0.02748479  0.61827650     0.93000
Mg3165     Mg  0.92397603  0.09482411  0.70027279     1.58000
O3166       O  0.96607205  0.10746474  0.71489563    -0.80600
O3167       O  0.88020999  0.08557007  0.68807832    -0.74800
O3168       O  0.81784966  0.47808893  0.66117610    -0.80700
O3169       O  0.94685296  0.07917046  0.61409937    -0.82400
O3170       O  0.52513966  0.16661560  0.67128949    -0.80700
C3171       C  0.86034435  0.06470307  0.67986925     0.87400
O3172       O  0.95285186  0.12087301  0.68269707    -0.87900
O3173       O  0.92089794  0.05362046  0.69135384    -0.88000
O3174       O  0.96923254  0.06776078  0.68794228    -0.75000
Mg3175     Mg  0.84828328  0.02869805  0.65340285     1.58000
O3176       O  0.82781813  0.47128300  0.68394351    -0.82400
H3177       H  0.90446190  0.12154355  0.63882180    -0.06100
O3178       O  0.97831551  0.10223817  0.65779003    -0.87700
H3179       H  0.00080490  0.07876127  0.65662692    -0.05900
H3180       H  0.94280202  0.15441784  0.68553799    -0.06100
C3181       C  0.98132146  0.08072393  0.65310775     0.87400
C3182       C  0.90008717  0.09909602  0.64210600     0.88000
C3183       C  0.94936351  0.14197832  0.67814877     0.88100
H3184       H  0.93804450  0.02616490  0.69580558    -0.06100
O3185       O  0.89156141  0.99912415  0.66809039    -0.75100
Mg3186     Mg  0.99372202  0.11746379  0.67960440     1.58000
H3187       H  0.90112052  0.99370521  0.64742124    -0.06100
C3188       C  0.97148044  0.10451740  0.61264575     0.93000
O3189       O  0.51547555  0.17342842  0.64852645    -0.82400
C3190       C  0.53224347  0.18249128  0.65980707     0.93100
O3191       O  0.83241457  0.01450270  0.62947043    -0.82300
Mg3192     Mg  0.87528666  0.01427429  0.68799238     1.58200
O3193       O  0.98434560  0.12297414  0.62321864    -0.80700
O3194       O  0.89450544  0.06811164  0.71896964    -0.82400
O3195       O  0.91511333  0.34001590  0.68942861    -0.88000
C3196       C  0.94757160  0.27970058  0.68357928     0.88100
Mg3197     Mg  0.87045150  0.33235888  0.68344143     1.58100
O3198       O  0.97881531  0.34229198  0.65978725    -0.87700
O3199       O  0.96356522  0.37411470  0.68647444    -0.75000
C3200       C  0.85514690  0.28306856  0.61632619     0.93100
O3201       O  0.87651127  0.26652358  0.68884531    -0.74800
O3202       O  0.83940628  0.28244597  0.62711469    -0.82300
Mg3203     Mg  0.91734727  0.30468361  0.70128332     1.58000
C3204       C  0.97681906  0.31951093  0.61467267     0.93000
O3205       O  0.95518620  0.33877319  0.71630362    -0.80600
H3206       H  0.00172737  0.38734220  0.65585895    -0.05900
C3207       C  0.90273784  0.26265642  0.64484658     0.88000
O3208       O  0.89003142  0.35903286  0.66253007    -0.75100
O3209       O  0.94963000  0.30479987  0.68617096    -0.87900
O3210       O  0.98944685  0.31718093  0.62626743    -0.80700
C3211       C  0.53313103  0.31977806  0.66903123     0.93200
C3212       C  0.98403854  0.35091699  0.71793757     0.93000
Mg3213     Mg  0.92190023  0.32374045  0.63172335     1.58000
O3214       O  0.88229048  0.28770587  0.61771773    -0.80600
O3215       O  0.96420113  0.36303156  0.64310637    -0.74800
O3216       O  0.52428241  0.33035040  0.67937854    -0.80700
O3217       O  0.88473769  0.30469717  0.71749814    -0.82400
O3218       O  0.81820212  0.30548104  0.65400824    -0.80700
C3219       C  0.98263362  0.36503004  0.65301872     0.87400
O3220       O  0.89190047  0.32641414  0.64751899    -0.87900
O3221       O  0.92441665  0.28930375  0.64415580    -0.88000
O3222       O  0.87540056  0.25685442  0.64727001    -0.75000
Mg3223     Mg  0.99034834  0.34847638  0.68278748     1.58000
O3224       O  0.01779514  0.30931298  0.65733192    -0.82400
H3225       H  0.93064368  0.38515007  0.69090614    -0.06100
O3226       O  0.86043280  0.28867018  0.67354807    -0.87700
H3227       H  0.83884974  0.24318230  0.67611846    -0.05900
H3228       H  0.90394890  0.36924721  0.64181780    -0.06100
C3229       C  0.85748182  0.26536807  0.67947579     0.87400
C3230       C  0.93604372  0.36702079  0.68916136     0.88000
C3231       C  0.89540601  0.35209781  0.65013958     0.88100
H3232       H  0.90714793  0.24376711  0.64346417    -0.06100
O3233       O  0.95271526  0.27292449  0.67111039    -0.75100
Mg3234     Mg  0.84989092  0.28438243  0.65091683     1.58000
H3235       H  0.94033410  0.26280938  0.69199558    -0.06100
C3236       C  0.86082056  0.30716817  0.71763079     0.93000
O3237       O  0.82433295  0.32593859  0.67605155    -0.82400
C3238       C  0.80987196  0.31712127  0.66408473     0.93100
O3239       O  0.50164820  0.35382206  0.70742516    -0.82300
Mg3240     Mg  0.97031066  0.29895385  0.64991827     1.58200
O3241       O  0.84995085  0.31223763  0.70616359    -0.80700
O3242       O  0.95234741  0.32096876  0.61502736    -0.82400
C3243       C  0.84117788  0.43581370  0.86170816    -0.10500
C3244       C  0.84482032  0.41293888  0.86817882    -0.04300
C3245       C  0.84343589  0.38840371  0.86043015    -0.10500
C3246       C  0.83889166  0.38676279  0.84533177     0.10500
C3247       C  0.83653900  0.41069039  0.83833796    -0.02200
C3248       C  0.83747116  0.43525422  0.84658232     0.10300
C3249       C  0.83493806  0.45849776  0.83949133    -0.12300
C3250       C  0.83184227  0.45796975  0.82451864    -0.12300
C3251       C  0.83052679  0.43383192  0.81615876     0.10300
C3252       C  0.83257085  0.40971122  0.82313349    -0.02200
C3253       C  0.83678023  0.36221085  0.83707057    -0.12400
C3254       C  0.83231865  0.36094849  0.82216187    -0.12400
C3255       C  0.83026686  0.38443314  0.81496551     0.10500
C3256       C  0.82530070  0.38321516  0.79987590    -0.10500
C3257       C  0.82405354  0.40751314  0.79329500    -0.04300
C3258       C  0.82642535  0.43259395  0.80103753    -0.10500
H3259       H  0.83570052  0.47745643  0.84550193     0.07800
H3260       H  0.83006578  0.47645540  0.81953532     0.07800
H3261       H  0.83848884  0.34374093  0.84211996     0.07900
H3262       H  0.83042345  0.34133211  0.81631273     0.07900
H3263       H  0.84678874  0.41319604  0.87983930     0.04400
H3264       H  0.82190100  0.40728152  0.78166531     0.04400
C3265       C  0.49815043  0.24637244  0.46803810    -0.10500
C3266       C  0.49185003  0.21895275  0.46122269    -0.04300
C3267       C  0.49169058  0.19469584  0.46853724    -0.10500
C3268       C  0.49811697  0.19778991  0.48351364     0.10500
C3269       C  0.50350168  0.22509154  0.49092092    -0.02200
C3270       C  0.50368615  0.24961073  0.48316370     0.10300
C3271       C  0.50861087  0.27604476  0.49080614    -0.12300
C3272       C  0.01297806  0.27841831  0.50579183    -0.12300
C3273       C  0.01299754  0.25462657  0.51367485     0.10300
C3274       C  0.00858389  0.22777241  0.50612036    -0.02200
C3275       C  0.49874756  0.17424214  0.49131188    -0.12400
C3276       C  0.00434241  0.17711967  0.50613724    -0.12400
C3277       C  0.00904300  0.20345095  0.51375394     0.10500
C3278       C  0.01451193  0.20642229  0.52879930    -0.10500
C3279       C  0.01809064  0.23257023  0.53594438    -0.04300
C3280       C  0.01762544  0.25675501  0.52887323    -0.10500
H3281       H  0.50862212  0.29492477  0.48525143     0.07800
H3282       H  0.01649947  0.29914027  0.51119647     0.07800
H3283       H  0.49481586  0.15330817  0.48598050     0.07900
H3284       H  0.00477671  0.15839732  0.51162989     0.07900
H3285       H  0.48816322  0.21686507  0.44964940     0.04400
H3286       H  0.02028159  0.23364056  0.54758867     0.04400
C3287       C  0.76261202  0.25737236  0.47013278    -0.10500
C3288       C  0.74012614  0.23219951  0.46250099    -0.04300
C3289       C  0.71595936  0.20719272  0.46927049    -0.10500
C3290       C  0.71342704  0.20743854  0.48440698     0.10500
C3291       C  0.73678745  0.23236807  0.49247185    -0.02200
C3292       C  0.76169556  0.25729912  0.48531693     0.10300
C3293       C  0.78506076  0.28109414  0.49350868    -0.12300
C3294       C  0.78421507  0.28047165  0.50851398    -0.12300
C3295       C  0.75933207  0.25670810  0.51576323     0.10300
C3296       C  0.73504683  0.23263083  0.50769955    -0.02200
C3297       C  0.68847593  0.18370446  0.49167972    -0.12400
C3298       C  0.68623661  0.18451081  0.50667138    -0.12400
C3299       C  0.70922361  0.20872572  0.51485947     0.10500
C3300       C  0.70733978  0.21022523  0.53002338    -0.10500
C3301       C  0.73151653  0.23400173  0.53763817    -0.04300
C3302       C  0.75768970  0.25653901  0.53089634    -0.10500
H3303       H  0.80442100  0.30008767  0.48834030     0.07800
H3304       H  0.80283811  0.29915458  0.51442841     0.07800
H3305       H  0.67039929  0.16448534  0.48578355     0.07900
H3306       H  0.66643355  0.16601285  0.51183239     0.07900
H3307       H  0.74053585  0.23278398  0.45081432     0.04400
H3308       H  0.73079171  0.23385832  0.54932587     0.04400
C3309       C  0.72127748  0.53177938  0.46896725    -0.10500
C3310       C  0.74836450  0.53763800  0.46219157    -0.04300
C3311       C  0.77174778  0.53543837  0.46932823    -0.10500
C3312       C  0.76882355  0.52926770  0.48439657     0.10500
C3313       C  0.74169756  0.52432707  0.49164280    -0.02200
C3314       C  0.71769911  0.52518969  0.48383963     0.10300
C3315       C  0.69100141  0.51987114  0.49112611    -0.12300
C3316       C  0.68729787  0.01292962  0.50572971    -0.12300
C3317       C  0.71043489  0.01170450  0.51367311     0.10300
C3318       C  0.73821540  0.01794954  0.50667176    -0.02200
C3319       C  0.79214690  0.52846701  0.49249633    -0.12400
C3320       C  0.78895513  0.02272056  0.50734469    -0.12400
C3321       C  0.76223133  0.01732005  0.51463356     0.10500
C3322       C  0.75814224  0.01059486  0.52958780    -0.10500
C3323       C  0.73058272  0.00427374  0.53601527    -0.04300
C3324       C  0.70650486  0.00393842  0.52841200    -0.10500
H3325       H  0.67267753  0.52110380  0.48558394     0.07800
H3326       H  0.66613048  0.00859421  0.51079097     0.07800
H3327       H  0.81325868  0.53270099  0.48742974     0.07900
H3328       H  0.80751372  0.02228526  0.51308917     0.07900
H3329       H  0.75017381  0.54169415  0.45068287     0.04400
H3330       H  0.72779502  0.99967849  0.54748028     0.04400
O3331       O  0.96598595  0.00937077  0.98916692    -0.88000
C3332       C  0.53116495  0.05738231  0.02006630     0.88100
Mg3333     Mg  0.93227729  0.46145560  0.99153433     1.58100
O3334       O  0.55786514  0.03578296  0.98933272    -0.87700
O3335       O  0.50166354  0.03871611  0.97415665    -0.75000
C3336       C  0.00859636  0.38849504  0.00834930     0.93100
O3337       O  0.95966811  0.49960285  0.02319055    -0.74800
O3338       O  0.98299308  0.38739548  0.01051683    -0.82300
Mg3339     Mg  0.97135371  0.03909957  0.00728408     1.58000
C3340       C  0.61729876  0.00036641  0.99875996     0.93000
O3341       O  0.98182199  0.08320345  0.99499213    -0.80600
H3342       H  0.56747333  0.03807746  0.96835697    -0.05900
C3343       C  0.53798477  0.47700349  0.02372872     0.88000
O3344       O  0.96114367  0.44660778  0.97778694    -0.75100
O3345       O  0.51957563  0.05330635  0.00794809    -0.87900
O3346       O  0.61491021  0.02444449  0.99890758    -0.80700
C3347       C  0.61544295  0.10940087  0.00158431     0.93200
C3348       C  0.50571043  0.10694888  0.99045159     0.93000
Mg3349     Mg  0.54326127  0.45798540  0.99360236     1.58000
O3350       O  0.53304986  0.41373704  0.00586432    -0.80600
O3351       O  0.55608664  0.49717930  0.97748795    -0.74800
O3352       O  0.59096970  0.10748573  0.99655687    -0.80700
O3353       O  0.92064299  0.02477574  0.00560784    -0.82400
O3354       O  0.92254445  0.38865019  0.00180637    -0.80700
C3355       C  0.56095392  0.02453002  0.97803530     0.87400
O3356       O  0.99445165  0.44343681  0.99186918    -0.87900
O3357       O  0.54641225  0.48720457  0.01154560    -0.88000
O3358       O  0.01102887  0.45509601  0.02591920    -0.75000
Mg3359     Mg  0.54421143  0.07023402  0.98773010     1.58000
O3360       O  0.61616379  0.08622725  0.00659904    -0.82400
H3361       H  0.95829255  0.00752929  0.96797282    -0.06100
O3362       O  0.95525433  0.45991551  0.01116433    -0.87700
H3363       H  0.94861397  0.45884697  0.03240974    -0.05900
H3364       H  0.99100456  0.43310966  0.97086741    -0.06100
C3365       C  0.95408330  0.47196416  0.02261570     0.87400
C3366       C  0.97434595  0.01818232  0.97679280     0.88000
C3367       C  0.98257772  0.44050035  0.97986895     0.88100
H3368       H  0.55369868  0.48712906  0.03270926    -0.06100
O3369       O  0.55188617  0.05072916  0.02284063    -0.75100
Mg3370     Mg  0.96893125  0.42468653  0.01161741     1.58000
H3371       H  0.52260834  0.06570232  0.02864461    -0.06100
C3372       C  0.89649819  0.49874806  0.00410892     0.93000
O3373       O  0.89643769  0.41121469  0.99424127    -0.82400
C3374       C  0.89762960  0.38748336  0.99795816     0.93100
O3375       O  0.53029216  0.10681163  0.98733455    -0.82300
Mg3376     Mg  0.58026696  0.03564559  0.00936053     1.58200
O3377       O  0.89755811  0.47404692  0.00208849    -0.80700
O3378       O  0.59409272  0.47359746  0.99729357    -0.82400
O3379       O  0.86356949  0.15906170  0.32403662    -0.88000
C3380       C  0.79702873  0.11866445  0.35510357     0.88100
Mg3381     Mg  0.89964687  0.20692373  0.32518865     1.58100
O3382       O  0.77227293  0.13503946  0.32220903    -0.87700
O3383       O  0.82708886  0.12565650  0.31000042    -0.75000
C3384       C  0.82903263  0.28559328  0.33942908     0.93100
O3385       O  0.87155209  0.17345200  0.35815538    -0.74800
O3386       O  0.85383270  0.28604561  0.34283462    -0.82300
Mg3387     Mg  0.85750278  0.13196459  0.34303647     1.58000
C3388       C  0.71846047  0.17851351  0.32521586     0.93000
O3389       O  0.84521027  0.08660557  0.33094829    -0.80600
H3390       H  0.76802626  0.13154396  0.30077716    -0.05900
C3391       C  0.79428919  0.19891895  0.35486318     0.88000
O3392       O  0.87328570  0.22232868  0.31054661    -0.75100
O3393       O  0.80919939  0.12009093  0.34338685    -0.87900
O3394       O  0.71780066  0.15391401  0.32911148    -0.80700
C3395       C  0.71117210  0.06597811  0.33637350     0.93200
C3396       C  0.82016570  0.06125450  0.32925872     0.93000
Mg3397     Mg  0.79371114  0.21575122  0.32359833     1.58000
O3398       O  0.80501749  0.26108928  0.33530393    -0.80600
O3399       O  0.78143887  0.17421660  0.30871021    -0.74800
O3400       O  0.73562265  0.06551948  0.33317486    -0.80700
O3401       O  0.90850094  0.14450718  0.34192346    -0.82400
O3402       O  0.91279055  0.28106824  0.33526569    -0.80700
C3403       C  0.77335351  0.14605815  0.31023286     0.87400
O3404       O  0.84126448  0.22798020  0.32426197    -0.87900
O3405       O  0.78586360  0.18822353  0.34261811    -0.88000
O3406       O  0.82188374  0.21915998  0.35755800    -0.75000
Mg3407     Mg  0.78353534  0.09864601  0.32375924     1.58000
O3408       O  0.71131059  0.09086657  0.33928424    -0.82400
H3409       H  0.87036572  0.15478139  0.30314884    -0.06100
O3410       O  0.87781008  0.21163622  0.34470667    -0.87700
H3411       H  0.88581377  0.21642541  0.36592098    -0.05900
H3412       H  0.84576218  0.23834727  0.30337451    -0.06100
C3413       C  0.87901539  0.20141282  0.35658526     0.87400
C3414       C  0.85459272  0.14694061  0.31207147     0.88000
C3415       C  0.85328700  0.23034785  0.31243799     0.88100
H3416       H  0.77797085  0.19025140  0.36356100    -0.06100
O3417       O  0.77618953  0.12583523  0.35640298    -0.75100
Mg3418     Mg  0.86562627  0.24750378  0.34436911     1.58000
H3419       H  0.80464048  0.11168229  0.36450082    -0.06100
C3420       C  0.93328553  0.16939739  0.33925935     0.93000
O3421       O  0.93740728  0.25732680  0.32703217    -0.82400
C3422       C  0.93704914  0.28155645  0.33094653     0.93100
O3423       O  0.79467183  0.06018475  0.32697749    -0.82300
Mg3424     Mg  0.74985121  0.14075744  0.34112381     1.58200
O3425       O  0.93328340  0.19390830  0.33578355    -0.80700
O3426       O  0.74347089  0.20342509  0.32319173    -0.82400
O3427       O  0.63378472  0.33428985  0.65540818    -0.88000
C3428       C  0.69734831  0.37654022  0.68790167     0.88100
Mg3429     Mg  0.59876553  0.28637358  0.65541398     1.58100
O3430       O  0.72630641  0.36004589  0.65633340    -0.87700
O3431       O  0.67122131  0.36633237  0.64176133    -0.75000
C3432       C  0.67008588  0.21000768  0.67302083     0.93100
O3433       O  0.62393627  0.31904990  0.68936013    -0.74800
O3434       O  0.64457201  0.20873462  0.67561055    -0.82300
Mg3435     Mg  0.63796078  0.36064357  0.67492369     1.58000
C3436       C  0.78111922  0.31802911  0.66257650     0.93000
O3437       O  0.65034653  0.40659597  0.66425735    -0.80600
H3438       H  0.73450199  0.36436428  0.63519829    -0.05900
C3439       C  0.70124673  0.29628772  0.68851811     0.88000
O3440       O  0.62727530  0.27206376  0.64154367    -0.75100
O3441       O  0.68614548  0.37402788  0.67579799    -0.87900
O3442       O  0.78099527  0.34243286  0.66643411    -0.80700
C3443       C  0.78344658  0.43088243  0.67214286     0.93200
C3444       C  0.67393005  0.43110997  0.66009370     0.93000
Mg3445     Mg  0.70613450  0.28004775  0.65739616     1.58000
O3446       O  0.69353130  0.23442944  0.66864707    -0.80600
O3447       O  0.72010430  0.32153426  0.64273999    -0.74800
O3448       O  0.75887584  0.42919631  0.66727900    -0.80700
O3449       O  0.58687450  0.34657013  0.67353201    -0.82400
O3450       O  0.58497930  0.21270835  0.66513197    -0.80700
C3451       C  0.72764539  0.34954694  0.64445380     0.87400
O3452       O  0.65811724  0.26666895  0.65627965    -0.87900
O3453       O  0.71116697  0.30742303  0.67659714    -0.88000
O3454       O  0.67354465  0.27545804  0.69020768    -0.75000
Mg3455     Mg  0.71289007  0.39490052  0.65645634     1.58000
O3456       O  0.78475154  0.40696950  0.67562202    -0.82400
H3457       H  0.62833083  0.33701725  0.63426124    -0.06100
O3458       O  0.61876659  0.28152184  0.67542416    -0.87700
H3459       H  0.60919252  0.27582532  0.69640859    -0.05900
H3460       H  0.65624053  0.25703354  0.63526084    -0.06100
C3461       C  0.61654561  0.29119794  0.68735250     0.87400
C3462       C  0.64352204  0.34560858  0.64349914     0.88000
C3463       C  0.64742480  0.26449885  0.64407739     0.88100
H3464       H  0.71631384  0.30499862  0.69779391    -0.06100
O3465       O  0.71825804  0.36990036  0.69018616    -0.75100
Mg3466     Mg  0.63147838  0.24650420  0.67571007     1.58000
H3467       H  0.68857404  0.38377062  0.69682417    -0.06100
C3468       C  0.56307837  0.32133769  0.66995371     0.93000
O3469       O  0.56106143  0.23614628  0.65585107    -0.82400
C3470       C  0.56112410  0.21202489  0.65989522     0.93100
O3471       O  0.69922618  0.43220460  0.65715829    -0.82300
Mg3472     Mg  0.74683354  0.35557970  0.67628778     1.58200
O3473       O  0.56458297  0.29813225  0.66548076    -0.80700
O3474       O  0.75667559  0.29336269  0.65909849    -0.82400
C3475       C  0.83738967  0.33516780  0.77638491     0.30100
C3476       C  0.85602677  0.32581726  0.76924032    -0.36200
C3477       C  0.84798985  0.31592240  0.75487888     0.16100
C3478       C  0.82346557  0.31544531  0.74789012     0.21900
C3479       C  0.80410870  0.32361746  0.75521600    -0.34300
C3480       C  0.81200975  0.33329518  0.76961600     0.16000
O3481       O  0.84388806  0.35041966  0.78878492    -0.26300
C3482       C  0.82211786  0.35807559  0.79010363     0.05800
C3483       C  0.80138604  0.34738193  0.77857466    -0.31200
O3484       O  0.82325742  0.31039232  0.73385221    -0.23000
C3485       C  0.84766885  0.30698768  0.73188233    -0.03000
C3486       C  0.86359961  0.30988491  0.74464923    -0.17500
H3487       H  0.87675321  0.32837188  0.77414663     0.20500
H3488       H  0.78558316  0.32465442  0.74975885     0.18900
H3489       H  0.78342112  0.35272819  0.77626722     0.18800
H3490       H  0.88539134  0.31062279  0.74595446     0.14700
C3491       C  0.81950844  0.28904993  0.58524857     0.30100
C3492       C  0.80021434  0.29623318  0.57734175    -0.36200
C3493       C  0.79938729  0.29140461  0.56245186     0.16100
C3494       C  0.81602368  0.27977156  0.55577720     0.21900
C3495       C  0.83636024  0.27373633  0.56365627    -0.34300
C3496       C  0.83734714  0.27880632  0.57859210     0.16000
O3497       O  0.82239054  0.29033756  0.59935237    -0.26300
C3498       C  0.84260159  0.28112484  0.60184369     0.05800
C3499       C  0.85295241  0.27384687  0.58932131    -0.31200
O3500       O  0.80640355  0.27034899  0.54248384    -0.23000
C3501       C  0.78357215  0.27629708  0.54056891    -0.03000
C3502       C  0.77901501  0.29038142  0.55254545    -0.17500
H3503       H  0.78550892  0.30341461  0.58254216     0.20500
H3504       H  0.84889541  0.26379011  0.55864917     0.18900
H3505       H  0.86957504  0.26619213  0.58830077     0.18800
H3506       H  0.75961869  0.29368841  0.55457824     0.14700
C3507       C  0.00094659  0.29830472  0.55404064     0.30100
C3508       C  0.97998622  0.30281464  0.56223098    -0.36200
C3509       C  0.98767366  0.31092404  0.57681632     0.16100
C3510       C  0.01399481  0.31411064  0.58313247     0.21900
C3511       C  0.03545497  0.31048908  0.57481546    -0.34300
C3512       C  0.02797658  0.30282814  0.56012294     0.16000
O3513       O  0.99568745  0.28529745  0.54107148    -0.26300
C3514       C  0.01991412  0.28178959  0.53856958     0.05800
C3515       C  0.04103355  0.29315382  0.55001508    -0.31200
O3516       O  0.01475470  0.31844774  0.59732871    -0.23000
C3517       C  0.98872687  0.31860547  0.60006736    -0.03000
C3518       C  0.97123636  0.31409063  0.58763347    -0.17500
H3519       H  0.95820043  0.29837771  0.55778282     0.20500
H3520       H  0.55574576  0.31183051  0.57962123     0.18900
H3521       H  0.56064455  0.28998403  0.55161239     0.18800
H3522       H  0.94861759  0.31165754  0.58680911     0.14700
C3523       C  0.83032482  0.00336687  0.75107712     0.30100
C3524       C  0.80881637  0.97727768  0.75846219    -0.36200
C3525       C  0.81655993  0.47434999  0.77265153     0.16100
C3526       C  0.84373931  0.49551960  0.77919554     0.21900
C3527       C  0.86464985  0.52240418  0.77201743    -0.34300
C3528       C  0.85683953  0.52539369  0.75780172     0.16000
O3529       O  0.83035504  0.00759857  0.73705834    -0.26300
C3530       C  0.85697581  0.03299382  0.73476152     0.05800
C3531       C  0.87416403  0.54529620  0.74733304    -0.31200
O3532       O  0.84933927  0.48493655  0.79116345    -0.23000
C3533       C  0.82522631  0.45679630  0.79240251    -0.03000
C3534       C  0.80391808  0.44942308  0.78129276    -0.17500
H3535       H  0.78877691  0.95910241  0.75308585     0.20500
H3536       H  0.88675600  0.53843071  0.77668334     0.18900
H3537       H  0.89758694  0.56397332  0.74830891     0.18800
H3538       H  0.78425003  0.42717490  0.77883525     0.14700
C3539       C  0.83047808  0.03140088  0.58197907     0.30100
C3540       C  0.83469449  0.04487212  0.56830407    -0.36200
C3541       C  0.81315863  0.02701223  0.55758373     0.16100
C3542       C  0.78950141  0.99775712  0.56018282     0.21900
C3543       C  0.78526544  0.48436365  0.57384195    -0.34300
C3544       C  0.80631343  0.00243697  0.58461982     0.16000
O3545       O  0.84764190  0.04410493  0.59355025    -0.26300
C3546       C  0.83401637  0.02332028  0.60385628     0.05800
C3547       C  0.80800981  0.99692466  0.59892178    -0.31200
O3548       O  0.76977072  0.48666486  0.54941007    -0.23000
C3549       C  0.78036095  0.00896348  0.53966289    -0.03000
C3550       C  0.80770398  0.03461610  0.54415896    -0.17500
H3551       H  0.85283642  0.06810114  0.56632218     0.20500
H3552       H  0.76592826  0.46193641  0.57608509     0.18900
H3553       H  0.79328079  0.47629815  0.60484161     0.18800
H3554       H  0.81924561  0.05705621  0.53926628     0.14700
C3555       C  0.00981429  0.14193578  0.58116698     0.30100
C3556       C  0.03148898  0.16683094  0.57316400    -0.36200
C3557       C  0.02371901  0.16789457  0.55873302     0.16100
C3558       C  0.99622868  0.14631193  0.55258583     0.21900
C3559       C  0.97508626  0.12068376  0.56043393    -0.34300
C3560       C  0.98305061  0.11940139  0.57483319     0.16000
O3561       O  0.01029476  0.13891468  0.59527863    -0.26300
C3562       C  0.98375919  0.11370622  0.59799939     0.05800
C3563       C  0.96607785  0.10048729  0.58564375    -0.31200
O3564       O  0.99079335  0.15536960  0.54011377    -0.23000
C3565       C  0.01537859  0.18289046  0.53811604    -0.03000
C3566       C  0.03685802  0.19129120  0.54924988    -0.17500
H3567       H  0.05190301  0.18536065  0.57813321     0.20500
H3568       H  0.95287729  0.10423577  0.55600603     0.18900
H3569       H  0.94276968  0.08149253  0.58494883     0.18800
H3570       H  0.05695622  0.21356061  0.55113413     0.14700
C3571       C  0.51184641  0.37643046  0.78049362     0.30100
C3572       C  0.49416408  0.37983870  0.76965481    -0.36200
C3573       C  0.49689759  0.37040013  0.75568440     0.16100
C3574       C  0.51592049  0.35868122  0.75251712     0.21900
C3575       C  0.53268492  0.35423195  0.76344096    -0.34300
C3576       C  0.52946537  0.36307839  0.77745653     0.16000
O3577       O  0.51767371  0.38931876  0.79347453    -0.26300
C3578       C  0.53888981  0.38368445  0.79904204     0.05800
C3579       C  0.54602655  0.36630542  0.78960718    -0.31200
O3580       O  0.51572506  0.35225523  0.73864095    -0.23000
C3581       C  0.99608685  0.35974026  0.73281188    -0.03000
C3582       C  0.98353063  0.37090674  0.74296758    -0.17500
H3583       H  0.98049108  0.39061157  0.77180301     0.20500
H3584       H  0.54808404  0.34552258  0.76109970     0.18900
H3585       H  0.56537858  0.36247162  0.79042994     0.18800
H3586       H  0.96634297  0.37760484  0.74125416     0.14700
C3587       C  0.54873252  0.15696954  0.77408826     0.30100
C3588       C  0.02179173  0.13527760  0.76689392    -0.36200
C3589       C  0.02048490  0.13917793  0.75196085     0.16100
C3590       C  0.54403231  0.16278823  0.74453753     0.21900
C3591       C  0.57052664  0.18506267  0.75180246    -0.34300
C3592       C  0.57175957  0.18122449  0.76675110     0.16000
O3593       O  0.55701931  0.15466419  0.78738266    -0.26300
C3594       C  0.58569395  0.17797921  0.78872634     0.05800
C3595       C  0.59556738  0.19563222  0.77624278    -0.31200
O3596       O  0.53883183  0.16081719  0.73045917    -0.23000
C3597       C  0.01140933  0.13566650  0.72882891    -0.03000
C3598       C  0.99891093  0.12148633  0.74188745    -0.17500
H3599       H  0.00383038  0.11567662  0.77239817     0.20500
H3600       H  0.58954668  0.20327078  0.74609089     0.18900
H3601       H  0.61856022  0.21379275  0.77383146     0.18800
H3602       H  0.97717273  0.10083836  0.74366353     0.14700
C3603       C  0.65855201  0.50487842  0.75332330     0.30100
C3604       C  0.65557074  0.51493303  0.76707192    -0.36200
C3605       C  0.65429587  0.49658906  0.77864919     0.16100
C3606       C  0.65619479  0.47031823  0.77678040     0.21900
C3607       C  0.65936914  0.46033979  0.76298524    -0.34300
C3608       C  0.66003839  0.47839563  0.75135913     0.16000
O3609       O  0.65935218  0.51825356  0.74109339    -0.26300
C3610       C  0.66093265  0.00003669  0.73102422     0.05800
C3611       C  0.66125644  0.47462749  0.73675969    -0.31200
O3612       O  0.64867119  0.45364960  0.78851814    -0.23000
C3613       C  0.64128652  0.46891957  0.79807879    -0.03000
C3614       C  0.64529489  0.49638629  0.79254657    -0.17500
H3615       H  0.65283677  0.53485827  0.76855091     0.20500
H3616       H  0.65927466  0.43890972  0.76136633     0.18900
H3617       H  0.66315347  0.45672511  0.73108627     0.18800
H3618       H  0.63683738  0.51072250  0.79704686     0.14700
C3619       C  0.71242439  0.14405572  0.75535334     0.30100
C3620       C  0.70174916  0.13286450  0.76921856    -0.36200
C3621       C  0.69773021  0.15268844  0.77857428     0.16100
C3622       C  0.70459677  0.18184780  0.77460363     0.21900
C3623       C  0.71583971  0.19323102  0.76085467    -0.34300
C3624       C  0.71891695  0.17309692  0.75137025     0.16000
O3625       O  0.71209598  0.12736411  0.74426698    -0.26300
C3626       C  0.71801547  0.14565978  0.73299227     0.05800
C3627       C  0.72263665  0.17452935  0.73677738    -0.31200
O3628       O  0.69350631  0.19410906  0.78364579    -0.23000
C3629       C  0.67921939  0.17277972  0.79361226    -0.03000
C3630       C  0.68139054  0.14652588  0.79106364    -0.17500
H3631       H  0.69414097  0.10925169  0.77199863     0.20500
H3632       H  0.71880190  0.21503248  0.75730998     0.18900
H3633       H  0.72506371  0.19261235  0.72969234     0.18800
H3634       H  0.66864889  0.12449616  0.79626357     0.14700
C3635       C  0.65436009  0.00473795  0.55273962     0.30100
C3636       C  0.64568080  0.02070588  0.56237769    -0.36200
C3637       C  0.63652075  0.00792460  0.57612163     0.16100
C3638       C  0.63627747  0.98144580  0.58025865     0.21900
C3639       C  0.64323943  0.46454278  0.57035454    -0.34300
C3640       C  0.65200583  0.97711074  0.55653778     0.16000
O3641       O  0.67063592  0.01619897  0.54090999    -0.26300
C3642       C  0.67833578  0.99539261  0.53688447     0.05800
C3643       C  0.66646481  0.47020045  0.54604689    -0.31200
O3644       O  0.63379545  0.97744212  0.59438358    -0.23000
C3645       C  0.63157436  0.00125654  0.59930857    -0.03000
C3646       C  0.63263930  0.02057659  0.58834060    -0.17500
H3647       H  0.64892432  0.04315975  0.55987422     0.20500
H3648       H  0.64475219  0.44466899  0.57360419     0.18900
H3649       H  0.67251756  0.45229127  0.54636659     0.18800
H3650       H  0.63455042  0.04297205  0.58943700     0.14700
C3651       C  0.67336906  0.14104876  0.58108100     0.30100
C3652       C  0.67578401  0.13497044  0.56649873    -0.36200
C3653       C  0.67322909  0.15446284  0.55652609     0.16100
C3654       C  0.66783949  0.17781181  0.56067526     0.21900
C3655       C  0.66473635  0.18342226  0.57526368    -0.34300
C3656       C  0.66838817  0.16464164  0.58523855     0.16000
O3657       O  0.67740742  0.12717205  0.59214933    -0.26300
C3658       C  0.67561863  0.14240441  0.60357916     0.05800
C3659       C  0.67005037  0.16604553  0.59994700    -0.31200
O3660       O  0.67325918  0.19740110  0.55024214    -0.23000
C3661       C  0.68291231  0.18716499  0.53926164    -0.03000
C3662       C  0.68227307  0.15978232  0.54247852    -0.17500
H3663       H  0.68165647  0.11778077  0.56323642     0.20500
H3664       H  0.66251813  0.20291496  0.57865135     0.18900
H3665       H  0.66710928  0.18154152  0.60708049     0.18800
H3666       H  0.69319911  0.14924056  0.53652023     0.14700
C3667       C  0.50020136  0.34900526  0.92079912     0.30100
C3668       C  0.50524953  0.37603573  0.91398942    -0.36200
C3669       C  0.51476627  0.37950263  0.89955279     0.16100
C3670       C  0.51886181  0.35778831  0.89222510     0.21900
C3671       C  0.51306003  0.33041455  0.89892048    -0.34300
C3672       C  0.50385955  0.32709751  0.91339174     0.16000
O3673       O  0.99571868  0.34324493  0.93474736    -0.26300
C3674       C  0.49646885  0.31725133  0.93632037     0.05800
C3675       C  0.50124930  0.30613950  0.92333493    -0.31200
O3676       O  0.53289309  0.36793686  0.87976479    -0.23000
C3677       C  0.53777992  0.39652899  0.87898388    -0.03000
C3678       C  0.52657302  0.40469193  0.89098071    -0.17500
H3679       H  0.00416226  0.39418556  0.91986254     0.20500
H3680       H  0.51779299  0.31397305  0.89358556     0.18900
H3681       H  0.50497870  0.28686033  0.92168237     0.18800
H3682       H  0.53012910  0.42722468  0.89378136     0.14700
C3683       C  0.55228086  0.17140828  0.88905140     0.30100
C3684       C  0.54058255  0.16142397  0.90289714    -0.36200
C3685       C  0.54465513  0.18433899  0.91285302     0.16100
C3686       C  0.55863854  0.21500805  0.90938155     0.21900
C3687       C  0.57019535  0.22500452  0.89546082    -0.34300
C3688       C  0.56653012  0.20205436  0.88551262     0.16000
O3689       O  0.55576976  0.15454865  0.87910671    -0.26300
C3690       C  0.57247576  0.17434474  0.86891405     0.05800
C3691       C  0.57939277  0.20427622  0.87227806    -0.31200
O3692       O  0.55998586  0.23247116  0.92044042    -0.23000
C3693       C  0.54704760  0.21271713  0.93118903    -0.03000
C3694       C  0.53725906  0.18247378  0.92705568    -0.17500
H3695       H  0.53051790  0.13757789  0.90592888     0.20500
H3696       H  0.58234354  0.24911476  0.89275535     0.18900
H3697       H  0.59578266  0.22515580  0.86696883     0.18800
H3698       H  0.52545849  0.16195709  0.93347428     0.14700
C3699       C  0.84999025  0.35386462  0.89063511     0.30100
C3700       C  0.85940335  0.35827964  0.90512379    -0.36200
C3701       C  0.83744046  0.33905547  0.91507049     0.16100
C3702       C  0.80856975  0.31612171  0.91099680     0.21900
C3703       C  0.79926257  0.31141357  0.89647277    -0.34300
C3704       C  0.82093429  0.33134397  0.88653215     0.16000
O3705       O  0.86415388  0.37380433  0.88036235    -0.26300
C3706       C  0.84399309  0.36460242  0.86950897     0.05800
C3707       C  0.81695480  0.33762195  0.87265557    -0.31200
O3708       O  0.79145706  0.30131696  0.92212955    -0.23000
C3709       C  0.80937111  0.31544297  0.93349350    -0.03000
C3710       C  0.83822990  0.33918770  0.92974827    -0.17500
H3711       H  0.88145411  0.37710048  0.90852297     0.20500
H3712       H  0.77605199  0.29475842  0.89327250     0.18900
H3713       H  0.79543199  0.32785573  0.86678474     0.18800
H3714       H  0.85723044  0.35383892  0.93680018     0.14700
C3715       C  0.68566448  0.15661741  0.88796589     0.30100
C3716       C  0.71201968  0.17256770  0.89663461    -0.36200
C3717       C  0.70881772  0.16449043  0.91124794     0.16100
C3718       C  0.68151243  0.14236601  0.91706614     0.21900
C3719       C  0.65563429  0.12524519  0.90823494    -0.34300
C3720       C  0.65889985  0.13317973  0.89358741     0.16000
O3721       O  0.68153558  0.16518465  0.87507604    -0.26300
C3722       C  0.65182153  0.14663713  0.87223278     0.05800
C3723       C  0.63699207  0.12576608  0.88329011    -0.31200
O3724       O  0.68181412  0.14315748  0.93134660    -0.23000
C3725       C  0.70991373  0.16574119  0.93471611    -0.03000
C3726       C  0.72773467  0.17931336  0.92258490    -0.17500
H3727       H  0.73269271  0.19203882  0.89261090     0.20500
H3728       H  0.63362708  0.10896225  0.91270578     0.18900
H3729       H  0.61252323  0.11075970  0.88453644     0.18800
H3730       H  0.75008124  0.19981973  0.92217149     0.14700
C3731       C  0.67559804  0.50480651  0.89155507     0.30100
C3732       C  0.70003900  0.50643645  0.89963963    -0.36200
C3733       C  0.70413663  0.51907224  0.91357049     0.16100
C3734       C  0.68560727  0.52960452  0.91921007     0.21900
C3735       C  0.66193148  0.52907143  0.91092180    -0.34300
C3736       C  0.65769383  0.51624891  0.89701768     0.16000
O3737       O  0.66381259  0.48825200  0.87967811    -0.26300
C3738       C  0.63816662  0.48931172  0.87737272     0.05800
C3739       C  0.63355738  0.50681177  0.88775936    -0.31200
O3740       O  0.68994045  0.03533753  0.93320948    -0.23000
C3741       C  0.71174465  0.52867023  0.93656392    -0.03000
C3742       C  0.72163698  0.51881499  0.92469831    -0.17500
H3743       H  0.71312779  0.49597910  0.89585500     0.20500
H3744       H  0.64613499  0.03559886  0.91545236     0.18900
H3745       H  0.61311849  0.50853737  0.88936831     0.18800
H3746       H  0.73707156  0.50957651  0.92460224     0.14700
C3747       C  0.82930292  0.47656166  0.91825541     0.30100
C3748       C  0.85285937  0.48290403  0.90838513    -0.36200
C3749       C  0.84369452  0.47440058  0.89395263     0.16100
C3750       C  0.81343003  0.46032825  0.88954244     0.21900
C3751       C  0.78997819  0.45446210  0.89934586    -0.34300
C3752       C  0.79914074  0.46294970  0.91371893     0.16000
O3753       O  0.83247537  0.48244659  0.93229103    -0.26300
C3754       C  0.80385229  0.47231011  0.93676118     0.05800
C3755       C  0.78230891  0.45992757  0.92562394    -0.31200
O3756       O  0.80941183  0.44930520  0.87626508    -0.23000
C3757       C  0.83745246  0.45653386  0.87192139    -0.03000
C3758       C  0.85971614  0.47282582  0.88247546    -0.17500
H3759       H  0.87656220  0.99277321  0.91179512     0.20500
H3760       H  0.76605475  0.44269294  0.89612607     0.18900
H3761       H  0.75778545  0.45103302  0.92615212     0.18800
H3762       H  0.88329512  0.47775416  0.88257627     0.14700
C3763       C  0.97858767  0.30790592  0.08539486     0.30100
C3764       C  0.98366386  0.33167670  0.09503212    -0.36200
C3765       C  0.97299865  0.32281715  0.10911218     0.16100
C3766       C  0.95807399  0.29259155  0.11342439     0.21900
C3767       C  0.95387213  0.26889243  0.10389442    -0.34300
C3768       C  0.96453075  0.27777439  0.08980900     0.16000
O3769       O  0.98539837  0.31085305  0.07155863    -0.26300
C3770       C  0.97561807  0.28219635  0.06703335     0.05800
C3771       C  0.96255202  0.26070512  0.07795858    -0.31200
O3772       O  0.94450934  0.28891079  0.12600616    -0.23000
C3773       C  0.95111679  0.31715497  0.12993598    -0.03000
C3774       C  0.96939513  0.33916522  0.11991581    -0.17500
H3775       H  0.49377142  0.35527724  0.09159611     0.20500
H3776       H  0.94139714  0.24500139  0.10697293     0.18900
H3777       H  0.95324559  0.23609850  0.07727866     0.18800
H3778       H  0.97458921  0.36282882  0.11950478     0.14700
C3779       C  0.81194654  0.32088106  0.08886187     0.30100
C3780       C  0.80693513  0.30988831  0.10308527    -0.36200
C3781       C  0.83156791  0.32533607  0.11282911     0.16100
C3782       C  0.85905900  0.35017996  0.10881036     0.21900
C3783       C  0.86398086  0.36129923  0.09462625    -0.34300
C3784       C  0.83955784  0.34557057  0.08483854     0.16000
O3785       O  0.79359730  0.30731000  0.07773050    -0.26300
C3786       C  0.80950692  0.32328400  0.06633008     0.05800
C3787       C  0.83837307  0.34749796  0.07014150    -0.31200
O3788       O  0.88055973  0.35795669  0.11871923    -0.23000
C3789       C  0.86707628  0.33800118  0.12936171    -0.03000
C3790       C  0.83631886  0.31723585  0.12627887    -0.17500
H3791       H  0.78607219  0.28929592  0.10606157     0.20500
H3792       H  0.88618357  0.37945784  0.09119714     0.18900
H3793       H  0.85668948  0.36259995  0.06305935     0.18800
H3794       H  0.82117982  0.29651878  0.13204910     0.14700
C3795       C  0.83126373  0.50629724  0.42234482     0.30100
C3796       C  0.82446470  0.49888812  0.43698207    -0.36200
C3797       C  0.81700684  0.51801467  0.44513158     0.16100
C3798       C  0.81673965  0.54300373  0.43926281     0.21900
C3799       C  0.82388417  0.55063050  0.42466557    -0.34300
C3800       C  0.83080470  0.53119246  0.41646007     0.16000
O3801       O  0.83500315  0.48929387  0.41250778    -0.26300
C3802       C  0.83686934  0.50322761  0.40006659     0.05800
C3803       C  0.83443208  0.52955397  0.40189498    -0.31200
O3804       O  0.80439064  0.55470047  0.44797798    -0.23000
C3805       C  0.79640406  0.53715524  0.45969426    -0.03000
C3806       C  0.80409814  0.51404890  0.45851392    -0.17500
H3807       H  0.82294670  0.47832617  0.44144429     0.20500
H3808       H  0.82187694  0.56907531  0.41978955     0.18900
H3809       H  0.83331615  0.54406616  0.39363774     0.18800
H3810       H  0.79717833  0.49459591  0.46551822     0.14700
C3811       C  0.80412602  0.32534481  0.41775316     0.30100
C3812       C  0.80860657  0.30386590  0.42533642    -0.36200
C3813       C  0.80208043  0.30155944  0.44007627     0.16100
C3814       C  0.79131036  0.31881906  0.44690429     0.21900
C3815       C  0.78803130  0.34131375  0.43939959    -0.34300
C3816       C  0.79485491  0.34381902  0.42461833     0.16000
O3817       O  0.80687186  0.32960918  0.40374184    -0.26300
C3818       C  0.79969164  0.35143271  0.40151289     0.05800
C3819       C  0.79226605  0.36141855  0.41414044    -0.31200
O3820       O  0.78004991  0.30802032  0.45976370    -0.23000
C3821       C  0.78402057  0.28380571  0.46127704    -0.03000
C3822       C  0.79852422  0.27944573  0.44946005    -0.17500
H3823       H  0.81498205  0.28867787  0.41993643     0.20500
H3824       H  0.77877629  0.35441884  0.44448591     0.18900
H3825       H  0.78556096  0.37874312  0.41536380     0.18800
H3826       H  0.80073551  0.25947992  0.44705560     0.14700
C3827       C  0.81988550  0.34612526  0.24794202     0.30100
C3828       C  0.82829936  0.35555491  0.23362353    -0.36200
C3829       C  0.83556381  0.33690333  0.22501229     0.16100
C3830       C  0.83407683  0.31052543  0.23016429     0.21900
C3831       C  0.82557760  0.30105787  0.24445698    -0.34300
C3832       C  0.81890377  0.31999807  0.25313515     0.16000
O3833       O  0.81569212  0.36201813  0.25816774    -0.26300
C3834       C  0.81217545  0.34614760  0.27015013     0.05800
C3835       C  0.81400271  0.31968967  0.26766663    -0.31200
O3836       O  0.84591874  0.29892639  0.22114531    -0.23000
C3837       C  0.85536414  0.31792123  0.20996085    -0.03000
C3838       C  0.84930511  0.34203215  0.21178294    -0.17500
H3839       H  0.83095454  0.37703269  0.22976556     0.20500
H3840       H  0.82624207  0.28143356  0.24878297     0.18900
H3841       H  0.81381888  0.30376940  0.27550963     0.18800
H3842       H  0.85743404  0.36238598  0.20528227     0.14700
C3843       C  0.49296308  0.28469844  0.43791947     0.30100
C3844       C  0.48216684  0.28485673  0.42392233    -0.36200
C3845       C  0.50245906  0.30863368  0.41490151     0.16100
C3846       C  0.53127178  0.33085315  0.41944383     0.21900
C3847       C  0.54197351  0.33079847  0.43345986    -0.34300
C3848       C  0.52174679  0.30694398  0.44246081     0.16000
O3849       O  0.47947079  0.26239593  0.44731678    -0.26300
C3850       C  0.49958899  0.27030926  0.45817482     0.05800
C3851       C  0.52631762  0.29809373  0.45572825    -0.31200
O3852       O  0.54671996  0.35064243  0.40923339    -0.23000
C3853       C  0.52773724  0.34104943  0.39790357    -0.03000
C3854       C  0.49976840  0.31487972  0.40080305    -0.17500
H3855       H  0.95996798  0.26693072  0.42014090     0.20500
H3856       H  0.56490394  0.34763685  0.43694316     0.18900
H3857       H  0.54747339  0.30814804  0.46189937     0.18800
H3858       H  0.48025256  0.30255231  0.39365556     0.14700
C3859       C  0.63164229  0.49639083  0.42206928     0.30100
C3860       C  0.63329895  0.48634614  0.43593642    -0.36200
C3861       C  0.65786407  0.50724100  0.44462844     0.16100
C3862       C  0.67933080  0.53605175  0.43996093     0.21900
C3863       C  0.67728335  0.54634505  0.42621240    -0.34300
C3864       C  0.65275465  0.52544742  0.41751705     0.16000
O3865       O  0.61338685  0.47909387  0.41156103    -0.26300
C3866       C  0.62267662  0.49731064  0.40013899     0.05800
C3867       C  0.64697814  0.52654346  0.40324432    -0.31200
O3868       O  0.70309388  0.54975217  0.44876162    -0.23000
C3869       C  0.69670997  0.52979158  0.45936772    -0.03000
C3870       C  0.66871072  0.50293864  0.45736111    -0.17500
H3871       H  0.61783289  0.46307372  0.43932370     0.20500
H3872       H  0.69488165  0.06824221  0.42218499     0.18900
H3873       H  0.66038546  0.54479457  0.39578551     0.18800
H3874       H  0.65967140  0.48188999  0.46341010     0.14700
C3875       C  0.99834324  0.32235732  0.25057613     0.30100
C3876       C  0.97279836  0.29978347  0.24293966    -0.36200
C3877       C  0.96879277  0.30731204  0.22887900     0.16100
C3878       C  0.98876830  0.33504469  0.22264980     0.21900
C3879       C  0.01482988  0.35723369  0.23013254    -0.34300
C3880       C  0.51859537  0.34988149  0.24425907     0.16000
O3881       O  0.50313654  0.32241324  0.26456775    -0.26300
C3882       C  0.52676157  0.35030386  0.26726583     0.05800
C3883       C  0.53751678  0.36820939  0.25497760    -0.31200
O3884       O  0.97766058  0.33972185  0.21062999    -0.23000
C3885       C  0.95029578  0.31463387  0.20904419    -0.03000
C3886       C  0.94377690  0.29359466  0.22004158    -0.17500
H3887       H  0.95568611  0.27900351  0.24806247     0.20500
H3888       H  0.02952580  0.37980644  0.22574830     0.18900
H3889       H  0.55450150  0.39234486  0.25433318     0.18800
H3890       H  0.92206909  0.27319200  0.22220978     0.14700
C3891       C  0.02271090  0.15326407  0.07815113     0.30100
C3892       C  0.01689914  0.12700767  0.08593903    -0.36200
C3893       C  0.00810114  0.12611554  0.10039702     0.16100
C3894       C  0.00526397  0.14945007  0.10683712     0.21900
C3895       C  0.01219426  0.17617534  0.09921510    -0.34300
C3896       C  0.02075423  0.17697290  0.08474744     0.16000
O3897       O  0.52608330  0.15660452  0.06399988    -0.26300
C3898       C  0.02640996  0.18289838  0.06150471     0.05800
C3899       C  0.02353251  0.19660546  0.07408625    -0.31200
O3900       O  0.99117782  0.14144481  0.11941645    -0.23000
C3901       C  0.98509294  0.11263116  0.12120765    -0.03000
C3902       C  0.99568004  0.10226124  0.10974898    -0.17500
H3903       H  0.51668661  0.10749723  0.08076365     0.20500
H3904       H  0.00853578  0.19394804  0.10385138     0.18900
H3905       H  0.02076899  0.21661442  0.07505005     0.18800
H3906       H  0.99134052  0.07913990  0.10777261     0.14700
C3907       C  0.86555443  0.99297287  0.10644535     0.30100
C3908       C  0.86176211  0.97970105  0.09269997    -0.36200
C3909       C  0.83624082  0.97569409  0.08475620     0.16100
C3910       C  0.81570905  0.98403505  0.09002746     0.21900
C3911       C  0.81887389  0.99624480  0.10398902    -0.34300
C3912       C  0.84453675  0.00044949  0.11190611     0.16000
O3913       O  0.89084465  0.00450605  0.11427428    -0.26300
C3914       C  0.88594903  0.01917229  0.12505354     0.05800
C3915       C  0.85731912  0.01714176  0.12418132    -0.31200
O3916       O  0.79717266  0.98395324  0.07992902    -0.23000
C3917       C  0.80572532  0.97522882  0.06806295    -0.03000
C3918       C  0.82964024  0.96931420  0.07048405    -0.17500
H3919       H  0.87910229  0.97557095  0.08799641     0.20500
H3920       H  0.80403409  0.00460960  0.10787700     0.18900
H3921       H  0.84911145  0.02984057  0.13045959     0.18800
H3922       H  0.84275429  0.96483364  0.06256342     0.14700
C3923       C  0.87365995  0.01223626  0.22094919     0.30100
C3924       C  0.87212090  0.99023745  0.23071425    -0.36200
C3925       C  0.86479347  0.99341529  0.24500927     0.16100
C3926       C  0.85951606  0.01669492  0.24943890     0.21900
C3927       C  0.85991503  0.03790691  0.23958961    -0.34300
C3928       C  0.86681750  0.03449441  0.22528772     0.16000
O3929       O  0.88571202  0.01730139  0.20790294    -0.26300
C3930       C  0.88605587  0.04282631  0.20370208     0.05800
C3931       C  0.87364482  0.05382239  0.21402444    -0.31200
O3932       O  0.85487510  0.01649019  0.26345386    -0.23000
C3933       C  0.85691798  0.49254341  0.26808757    -0.03000
C3934       C  0.86281612  0.47720945  0.25704827    -0.17500
H3935       H  0.87796197  0.97295432  0.22759167     0.20500
H3936       H  0.85648430  0.05667382  0.24296667     0.18900
H3937       H  0.87458592  0.07585805  0.21416852     0.18800
H3938       H  0.86523664  0.45699800  0.25781451     0.14700
C3939       C  0.66232447  0.17291675  0.10885380     0.30100
C3940       C  0.65210159  0.16505264  0.09456051    -0.36200
C3941       C  0.67470755  0.17789285  0.08398967     0.16100
C3942       C  0.70503218  0.19831930  0.08723680     0.21900
C3943       C  0.71507403  0.20716527  0.10145131    -0.34300
C3944       C  0.69271113  0.19339675  0.11209107     0.16000
O3945       O  0.64746660  0.15622390  0.11998428    -0.26300
C3946       C  0.66850915  0.16526448  0.13040679     0.05800
C3947       C  0.69671831  0.18954691  0.12626233    -0.31200
O3948       O  0.72268760  0.20591804  0.07584757    -0.23000
C3949       C  0.70356042  0.18980770  0.06518945    -0.03000
C3950       C  0.67333715  0.17189685  0.06958065    -0.17500
H3951       H  0.62886456  0.14738727  0.09198149     0.20500
H3952       H  0.73918011  0.22140530  0.10409553     0.18900
H3953       H  0.71856502  0.19746903  0.13165505     0.18800
H3954       H  0.65335800  0.15700434  0.06310154     0.14700
C3955       C  0.68441675  0.04277305  0.08465485     0.30100
C3956       C  0.66053765  0.04175731  0.09299566    -0.36200
C3957       C  0.66775330  0.05162230  0.10745905     0.16100
C3958       C  0.69658589  0.06225950  0.11330436     0.21900
C3959       C  0.72036964  0.06302846  0.10500791    -0.34300
C3960       C  0.71309839  0.05293416  0.09060069     0.16000
O3961       O  0.68282213  0.03457348  0.07090973    -0.26300
C3962       C  0.71092818  0.03950133  0.06799590     0.05800
C3963       C  0.73062317  0.05100044  0.07989348    -0.31200
O3964       O  0.69948432  0.07446693  0.12632364    -0.23000
C3965       C  0.67201151  0.07134022  0.12907258    -0.03000
C3966       C  0.65133318  0.05681091  0.11768187    -0.17500
H3967       H  0.63806560  0.03446464  0.08843992     0.20500
H3968       H  0.74329303  0.07188272  0.10934342     0.18900
H3969       H  0.75434078  0.05650492  0.08062875     0.18800
H3970       H  0.62889207  0.05457102  0.11630295     0.14700
C3971       C  0.65129659  0.03182655  0.25325622     0.30100
C3972       C  0.67743140  0.05184809  0.24542775    -0.36200
C3973       C  0.67273700  0.05493939  0.23078113     0.16100
C3974       C  0.64420956  0.03968174  0.22426731     0.21900
C3975       C  0.61811980  0.01905553  0.23203304    -0.34300
C3976       C  0.62285821  0.01590765  0.24669419     0.16000
O3977       O  0.65047747  0.52582876  0.26711264    -0.26300
C3978       C  0.62110185  0.50568168  0.26950802     0.05800
C3979       C  0.60284681  0.99868718  0.25716685    -0.31200
O3980       O  0.64416797  0.05030408  0.21130440    -0.23000
C3981       C  0.67307661  0.07249338  0.20939389    -0.03000
C3982       C  0.69192931  0.07574901  0.22109876    -0.17500
H3983       H  0.69971713  0.06503140  0.25053316     0.20500
H3984       H  0.59547117  0.00747432  0.22717219     0.18900
H3985       H  0.57855397  0.98253268  0.25600236     0.18800
H3986       H  0.71507931  0.09425168  0.22313440     0.14700
C3987       C  0.48091887  0.12780599  0.41589065     0.30100
C3988       C  0.46173395  0.13322400  0.42493519    -0.36200
C3989       C  0.47202657  0.14212590  0.43917737     0.16100
C3990       C  0.49950289  0.14571618  0.44422768     0.21900
C3991       C  0.51788674  0.13864198  0.43539270    -0.34300
C3992       C  0.50750821  0.12960818  0.42114972     0.16000
O3993       O  0.47908580  0.12588389  0.40166853    -0.26300
C3994       C  0.50449937  0.12577167  0.39774212     0.05800
C3995       C  0.52270492  0.12748693  0.40947532    -0.31200
O3996       O  0.50833667  0.16150037  0.45648986    -0.23000
C3997       C  0.48603428  0.16772688  0.45948124    -0.03000
C3998       C  0.46255799  0.15545661  0.44919056    -0.17500
H3999       H  0.94180125  0.13364717  0.42076804     0.20500
H4000       H  0.54030194  0.14303510  0.43889450     0.18900
H4001       H  0.54583656  0.13110663  0.40928869     0.18800
H4002       H  0.94393006  0.16031066  0.44802245     0.14700
C4003       C  0.66304440  0.17758691  0.44219642     0.30100
C4004       C  0.64378812  0.18222816  0.43287823    -0.36200
C4005       C  0.64804668  0.17964518  0.41814811     0.16100
C4006       C  0.66949529  0.17263410  0.41283417     0.21900
C4007       C  0.68778559  0.16657883  0.42217630    -0.34300
C4008       C  0.68356913  0.16919177  0.43696706     0.16000
O4009       O  0.66849801  0.18671826  0.45576811    -0.26300
C4010       C  0.69271752  0.18409131  0.45940423     0.05800
C4011       C  0.70205964  0.17187759  0.44823559    -0.31200
O4012       O  0.67068265  0.17319074  0.39860995    -0.23000
C4013       C  0.64957118  0.18054232  0.39485433    -0.03000
C4014       C  0.63475535  0.18467349  0.40656586    -0.17500
H4015       H  0.62835536  0.18984916  0.43678041     0.20500
H4016       H  0.70546981  0.16214009  0.41819732     0.18900
H4017       H  0.72358854  0.17187992  0.44755666     0.18800
H4018       H  0.61640815  0.19010193  0.40649765     0.14700
C4019       C  0.98461452  0.15986690  0.22051922     0.30100
C4020       C  0.47666979  0.16854957  0.23357866    -0.36200
C4021       C  0.49006925  0.16477150  0.24612648     0.16100
C4022       C  0.01064302  0.15416266  0.24569668     0.21900
C4023       C  0.01904856  0.14610409  0.23267888    -0.34300
C4024       C  0.00518944  0.14925328  0.22018945     0.16000
O4025       O  0.96923705  0.15433331  0.20831323    -0.26300
C4026       C  0.97951737  0.13952333  0.20002937     0.05800
C4027       C  0.00292638  0.13694396  0.20678547    -0.31200
O4028       O  0.02038008  0.15219398  0.25857192    -0.23000
C4029       C  0.50553703  0.16107670  0.26751617    -0.03000
C4030       C  0.48620849  0.16919873  0.26039769    -0.17500
H4031       H  0.45944418  0.17549636  0.23402024     0.20500
H4032       H  0.03400385  0.13632498  0.23240880     0.18900
H4033       H  0.01167937  0.12193746  0.20361649     0.18800
H4034       H  0.47267635  0.17847393  0.26497015     0.14700
C4035       C  0.66872873  0.19638443  0.22226008     0.30100
C4036       C  0.64789261  0.20330438  0.22908234    -0.36200
C4037       C  0.65476455  0.21377510  0.24343379     0.16100
C4038       C  0.68043529  0.21722007  0.25058221     0.21900
C4039       C  0.70178934  0.21136935  0.24361169    -0.34300
C4040       C  0.69487542  0.20083507  0.22930803     0.16000
O4041       O  0.66371645  0.18071570  0.21007383    -0.26300
C4042       C  0.68707598  0.17527425  0.20921649     0.05800
C4043       C  0.70734091  0.18769847  0.22083736    -0.31200
O4044       O  0.67946898  0.22143888  0.26457544    -0.23000
C4045       C  0.65307921  0.22118505  0.26647592    -0.03000
C4046       C  0.63694677  0.21688914  0.25363054    -0.17500
H4047       H  0.62642656  0.19821751  0.22400658     0.20500
H4048       H  0.72099833  0.21224860  0.24935305     0.18900
H4049       H  0.72617053  0.18392416  0.22357563     0.18800
H4050       H  0.61370176  0.21256873  0.25229119     0.14700
O4051       O  0.57014952  0.68347813  0.35730146    -0.88000
C4052       C  0.60394748  0.63148437  0.33822915     0.88100
Mg4053     Mg  0.52420280  0.67649042  0.35442592     1.58100
O4054       O  0.63667704  0.70729262  0.32556643    -0.87700
O4055       O  0.61900479  0.71859428  0.35691362    -0.75000
C4056       C  0.51510936  0.66755035  0.28269322     0.93100
O4057       O  0.53200905  0.61256310  0.34715596    -0.74800
O4058       O  0.49615205  0.66049170  0.29305654    -0.82300
Mg4059     Mg  0.57287629  0.64293443  0.36189573     1.58000
C4060       C  0.63869661  0.71617730  0.28076497     0.93000
O4061       O  0.61016103  0.66815621  0.37839824    -0.80600
H4062       H  0.65923189  0.75273652  0.32895924    -0.05900
C4063       C  0.56281701  0.64024191  0.30350790     0.88000
O4064       O  0.54243057  0.71597284  0.33809037    -0.75100
O4065       O  0.60497403  0.65342421  0.34480294    -0.87900
O4066       O  0.65059358  0.70919502  0.29113265    -0.80700
C4067       C  0.68956711  0.67921887  0.32496891     0.93200
C4068       C  0.63875262  0.67894561  0.38003192     0.93000
Mg4069     Mg  0.58130598  0.70680252  0.30089691     1.58000
O4070       O  0.54376105  0.68045736  0.28483124    -0.80600
O4071       O  0.62230211  0.73768757  0.31563799    -0.74800
O4072       O  0.67823022  0.68045250  0.33710360    -0.80700
O4073       O  0.54121818  0.63208693  0.38047202    -0.82400
O4074       O  0.97367503  0.66830272  0.32643890    -0.80700
C4075       C  0.64048647  0.73330208  0.32351923     0.87400
O4076       O  0.54851282  0.69684326  0.31802005    -0.87900
O4077       O  0.58381242  0.66662863  0.30620292    -0.88000
O4078       O  0.53498423  0.63140722  0.30666484    -0.75000
Mg4079     Mg  0.64623533  0.69720919  0.34664524     1.58000
O4080       O  0.67754629  0.68012032  0.31303240    -0.82400
H4081       H  0.58577020  0.72587127  0.36529375    -0.06100
O4082       O  0.51684164  0.64287699  0.33788622    -0.87700
H4083       H  0.49456685  0.59755955  0.33421471    -0.05900
H4084       H  0.55731579  0.74026136  0.31960700    -0.06100
C4085       C  0.51334918  0.61693030  0.33966786     0.87400
C4086       C  0.59120055  0.70977234  0.36011927     0.88000
C4087       C  0.54965273  0.71855083  0.32488368     0.88100
H4088       H  0.56832621  0.62406191  0.29848962    -0.06100
O4089       O  0.61106155  0.63353767  0.32504863    -0.75100
Mg4090     Mg  0.50709494  0.65243469  0.31659248     1.58000
H4091       H  0.59630592  0.61000448  0.34372048    -0.06100
C4092       C  0.51675389  0.63269275  0.38296258     0.93000
O4093       O  0.47580925  0.66915757  0.35057436    -0.82400
C4094       C  0.96269977  0.66924498  0.33881033     0.93100
O4095       O  0.65695663  0.68690997  0.36939417    -0.82300
Mg4096     Mg  0.62963823  0.67354138  0.30919331     1.58200
O4097       O  0.50474824  0.64222145  0.37365138    -0.80700
O4098       O  0.61335621  0.71581201  0.28206221    -0.82400
C4099       C  0.68551912  0.65014196  0.20002129    -0.10500
C4100       C  0.68480071  0.62551312  0.20722059    -0.04300
C4101       C  0.67985945  0.59882522  0.20003395    -0.10500
C4102       C  0.67734425  0.59714564  0.18482980     0.10500
C4103       C  0.67798320  0.62194132  0.17725273    -0.02200
C4104       C  0.68152144  0.64830956  0.18489364     0.10300
C4105       C  0.68121119  0.67212913  0.17719989    -0.12300
C4106       C  0.67679660  0.66993059  0.16232431    -0.12300
C4107       C  0.67317408  0.64412137  0.15461373     0.10300
C4108       C  0.67440131  0.62010772  0.16203413    -0.02200
C4109       C  0.67458374  0.57172406  0.17700270    -0.12400
C4110       C  0.67274571  0.57069564  0.16192997    -0.12400
C4111       C  0.67226631  0.59442970  0.15423739     0.10500
C4112       C  0.66893464  0.59315698  0.13900367    -0.10500
C4113       C  0.66585366  0.61609382  0.13220253    -0.04300
C4114       C  0.66805309  0.64137358  0.13963705    -0.10500
H4115       H  0.68418897  0.69260025  0.18264771     0.07800
H4116       H  0.67618438  0.68861707  0.15687971     0.07800
H4117       H  0.67438501  0.55269378  0.18251195     0.07900
H4118       H  0.67091583  0.55082858  0.15632997     0.07900
H4119       H  0.68589572  0.62623359  0.21889921     0.04400
H4120       H  0.66381404  0.61538537  0.12054235     0.04400
C4121       C  0.90916810  0.56420362  0.19333352    -0.10500
C4122       C  0.93251599  0.59124849  0.19936116    -0.04300
C4123       C  0.95663946  0.61328897  0.19131671    -0.10500
C4124       C  0.95812993  0.60827130  0.17639663     0.10500
C4125       C  0.93442187  0.58088364  0.16988444    -0.02200
C4126       C  0.90984632  0.55869503  0.17840532     0.10300
C4127       C  0.88658941  0.53204609  0.17174513    -0.12300
C4128       C  0.88711060  0.52717962  0.15696439    -0.12300
C4129       C  0.91110251  0.54863169  0.14834493     0.10300
C4130       C  0.93529666  0.57559991  0.15485632    -0.02200
C4131       C  0.98226420  0.62958767  0.16784724    -0.12400
C4132       C  0.98336990  0.62414857  0.15310349    -0.12400
C4133       C  0.96018469  0.59735437  0.14636120     0.10500
C4134       C  0.96124903  0.59120573  0.13144591    -0.10500
C4135       C  0.93714665  0.56433177  0.12539324    -0.04300
C4136       C  0.91188312  0.54362545  0.13339412    -0.10500
H4137       H  0.86768255  0.51485443  0.17793284     0.07800
H4138       H  0.86872260  0.50614523  0.15236238     0.07800
H4139       H  0.00055275  0.65056541  0.17256317     0.07900
H4140       H  0.00268655  0.64105821  0.14703793     0.07900
H4141       H  0.93244111  0.59495007  0.21090169     0.04400
H4142       H  0.93699355  0.56036607  0.11388630     0.04400
O4143       O  0.54805569  0.91617074  0.35836161    -0.88000
C4144       C  0.63847028  0.95075337  0.34727900     0.88100
Mg4145     Mg  0.51180684  0.87092964  0.35209859     1.58100
O4146       O  0.60155660  0.98388590  0.32811261    -0.87700
O4147       O  0.56069545  0.96466928  0.35652909    -0.75000
C4148       C  0.53496556  0.86310986  0.28197548     0.93100
O4149       O  0.58474588  0.87944375  0.35339878    -0.74800
O4150       O  0.52429439  0.84532679  0.29271251    -0.82300
Mg4151     Mg  0.58878372  0.91896093  0.36754407     1.58000
C4152       C  0.61050258  0.98895954  0.28317423     0.93000
O4153       O  0.59570379  0.95600120  0.38407776    -0.80600
H4154       H  0.57654962  0.00484417  0.32807247    -0.05900
C4155       C  0.60488884  0.91207615  0.30831738     0.88000
O4156       O  0.49849314  0.89082421  0.33304852    -0.75100
O4157       O  0.61622066  0.95240119  0.35174875    -0.87900
O4158       O  0.62807211  0.99852758  0.29425689    -0.80700
C4159       C  0.68142838  0.53724851  0.33505821     0.93200
C4160       C  0.61288958  0.98491430  0.38546563     0.93000
Mg4161     Mg  0.55706390  0.92924087  0.29991909     1.58000
O4162       O  0.55065735  0.89218084  0.28344985    -0.80600
O4163       O  0.56105064  0.96866682  0.31419888    -0.74800
O4164       O  0.66365066  0.52727115  0.34590709    -0.80700
O4165       O  0.56106159  0.88397011  0.38430682    -0.82400
O4166       O  0.98388731  0.82072403  0.32137791    -0.80700
C4167       C  0.58002405  0.98688378  0.32355322     0.87400
O4168       O  0.52948593  0.89554745  0.31555134    -0.87900
O4169       O  0.59773944  0.93230245  0.30931476    -0.88000
O4170       O  0.58600511  0.88413591  0.31105828    -0.75000
Mg4171     Mg  0.61210589  0.99306377  0.35074704     1.58000
O4172       O  0.67375174  0.52401748  0.32273037    -0.82400
H4173       H  0.51822343  0.93081001  0.36212136    -0.06100
O4174       O  0.54476849  0.86504798  0.33931992    -0.87700
H4175       H  0.56894420  0.84324623  0.33952608    -0.05900
H4176       H  0.49564255  0.90519087  0.31304898    -0.06100
C4177       C  0.56582581  0.86146919  0.34399133     0.87400
C4178       C  0.54137696  0.93678193  0.35925275     0.88000
C4179       C  0.50725764  0.89717158  0.32011210     0.88100
H4180       H  0.62813274  0.91848065  0.30540757    -0.06100
O4181       O  0.64751194  0.95737460  0.33440684    -0.75100
Mg4182     Mg  0.53479714  0.85545838  0.31670268     1.58000
H4183       H  0.64992166  0.94260143  0.35436792    -0.06100
C4184       C  0.53597688  0.85861797  0.38433057     0.93000
O4185       O  0.97323286  0.82421218  0.34446805    -0.82400
C4186       C  0.96614348  0.81066313  0.33220368     0.93100
O4187       O  0.62350595  0.00256345  0.37467364    -0.82300
Mg4188     Mg  0.63425016  0.97728366  0.31541590     1.58200
O4189       O  0.51811259  0.84897799  0.37331312    -0.80700
O4190       O  0.58492310  0.96411522  0.28317111    -0.82400
O4191       O  0.84669166  0.91685563  0.31189036    -0.88000
C4192       C  0.78343837  0.94505274  0.31908780     0.88100
Mg4193     Mg  0.84068634  0.87301018  0.31831198     1.58100
O4194       O  0.84962334  0.98296277  0.34090464    -0.87700
O4195       O  0.87903618  0.96621400  0.31419627    -0.75000
C4196       C  0.80237418  0.86467308  0.38713981     0.93100
O4197       O  0.77322894  0.87511733  0.31382031    -0.74800
O4198       O  0.79957070  0.84815135  0.37616943    -0.82300
Mg4199     Mg  0.80870993  0.91583435  0.30063380     1.58000
C4200       C  0.83596648  0.98814330  0.38608422     0.93000
O4201       O  0.83954523  0.95286516  0.28493133    -0.71600
H4202       H  0.89512809  0.00841642  0.34332643    -0.05900
C4203       C  0.77546015  0.90762369  0.35871638     0.88000
O4204       O  0.87036619  0.89539490  0.33860206    -0.75100
O4205       O  0.80870400  0.94842882  0.31575928    -0.87900
O4206       O  0.83065949  0.99768736  0.37423597    -0.80700
C4207       C  0.82085115  0.53253217  0.33117264     0.93200
C4208       C  0.84994460  0.98134644  0.28300443     0.93000
Mg4209     Mg  0.83970481  0.93129655  0.37015857     1.58000
O4210       O  0.80940079  0.89270990  0.38606638    -0.80600
O4211       O  0.87490221  0.97263753  0.35709067    -0.74800
O4212       O  0.82976987  0.52219529  0.32077610    -0.80700
O4213       O  0.80914936  0.88318554  0.28433068    -0.82400
O4214       O  0.82100826  0.82525953  0.34900560    -0.80700
C4215       C  0.87395772  0.98907084  0.34698234     0.87400
O4216       O  0.84061842  0.89931130  0.35455099    -0.87900
O4217       O  0.80172126  0.93006356  0.35873569    -0.88000
O4218       O  0.77037571  0.88044786  0.35633609    -0.75000
Mg4219     Mg  0.85134279  0.99105156  0.31786833     1.58000
O4220       O  0.81432074  0.01999793  0.34355928    -0.82400
H4221       H  0.89203763  0.93453591  0.31007033    -0.06100
O4222       O  0.79908347  0.86403702  0.32934984    -0.87700
H4223       H  0.75340681  0.83924462  0.32754058    -0.05900
H4224       H  0.88457416  0.91268389  0.35877734    -0.06100
C4225       C  0.77450259  0.85836543  0.32367070     0.87400
C4226       C  0.87320682  0.93882323  0.31184464     0.88000
C4227       C  0.86583884  0.90275387  0.35109356     0.88100
H4228       H  0.75622667  0.91124778  0.36055348    -0.06100
O4229       O  0.77846142  0.95179386  0.33161379    -0.75100
Mg4230     Mg  0.79873010  0.85618755  0.35221460     1.58000
H4231       H  0.76493035  0.93537908  0.31128385    -0.06100
C4232       C  0.81229290  0.85967427  0.28438682     0.93000
O4233       O  0.83419705  0.82722226  0.32591056    -0.82400
C4234       C  0.82866612  0.81463844  0.33823166     0.93100
O4235       O  0.85296306  0.99949779  0.29336108    -0.82300
Mg4236     Mg  0.80789878  0.97416518  0.35185229     1.58200
O4237       O  0.81799466  0.84976742  0.29598770    -0.80700
O4238       O  0.83849994  0.96420028  0.38655670    -0.82400
C4239       C  0.92598747  0.81475674  0.20000240    -0.10500
C4240       C  0.90192935  0.81504775  0.20729441    -0.04300
C4241       C  0.87925665  0.81856699  0.20024044    -0.10500
C4242       C  0.88083769  0.82226698  0.18500095     0.10500
C4243       C  0.90461190  0.82073211  0.17729563    -0.02200
C4244       C  0.92720494  0.81692185  0.18485234     0.10300
C4245       C  0.95000312  0.81470798  0.17707336    -0.12300
C4246       C  0.95062491  0.81586444  0.16208786    -0.12300
C4247       C  0.92893459  0.82004825  0.15437810     0.10300
C4248       C  0.90585053  0.82291847  0.16199834    -0.02200
C4249       C  0.85937144  0.82680530  0.17718915    -0.12400
C4250       C  0.86127935  0.83010568  0.16216512    -0.12400
C4251       C  0.88410525  0.82797843  0.15433698     0.10500
C4252       C  0.88639699  0.83104120  0.13908798    -0.10500
C4253       C  0.90889778  0.82751552  0.13197881    -0.04300
C4254       C  0.92988905  0.82192841  0.13921939    -0.10500
H4255       H  0.96727125  0.81151558  0.18253651     0.07800
H4256       H  0.96847948  0.81378717  0.15655709     0.07800
H4257       H  0.84092110  0.82788590  0.18264248     0.07900
H4258       H  0.84449167  0.83398800  0.15667545     0.07900
H4259       H  0.90152385  0.81360036  0.21895588     0.04400
H4260       H  0.90982981  0.82862974  0.12030138     0.04400
O4261       O  0.78315138  0.52087080  0.97875086    -0.88000
C4262       C  0.69261201  0.96380448  0.98946045     0.88100
Mg4263     Mg  0.82018916  0.51229146  0.98404422     1.58100
O4264       O  0.72777128  0.53319230  0.00899224    -0.87700
O4265       O  0.76953810  0.55612018  0.98099809    -0.75000
C4266       C  0.79653789  0.47975397  0.05365584     0.93100
O4267       O  0.74683913  0.94692126  0.98258192    -0.74800
O4268       O  0.80690030  0.97293242  0.04257882    -0.82300
Mg4269     Mg  0.74253307  0.98274536  0.96932652     1.58000
C4270       C  0.71954364  0.53060030  0.05417070     0.93000
O4271       O  0.73626110  0.01307658  0.95327355    -0.80600
H4272       H  0.75235101  0.57904409  0.00942876    -0.05900
C4273       C  0.72588659  0.95841513  0.02744243     0.88000
O4274       O  0.83322230  0.54418706  0.00386079    -0.75100
O4275       O  0.71487256  0.98780511  0.98526343    -0.87900
O4276       O  0.70145695  0.52226752  0.04321094    -0.80700
C4277       C  0.64784134  0.00399351  0.00111948     0.93200
C4278       C  0.71928496  0.02490102  0.95151223     0.93000
Mg4279     Mg  0.77296990  0.52330585  0.03676528     1.58000
O4280       O  0.78045398  0.49289374  0.05280601    -0.80600
O4281       O  0.76826841  0.55846640  0.02292004    -0.74800
O4282       O  0.66610996  0.01151842  0.99050550    -0.80700
O4283       O  0.76994288  0.97675595  0.95237307    -0.82400
O4284       O  0.84903960  0.49032466  0.01400338    -0.80700
C4285       C  0.74914397  0.55767725  0.01370097     0.87400
O4286       O  0.80085360  0.51760088  0.02068041    -0.87900
O4287       O  0.73222019  0.98563441  0.02746805    -0.88000
O4288       O  0.74544410  0.95027371  0.02415383    -0.75000
Mg4289     Mg  0.71781622  0.53187402  0.98628344     1.58000
O4290       O  0.65556982  0.00087330  0.01386747    -0.82400
H4291       H  0.81252826  0.56549413  0.97570183    -0.06100
O4292       O  0.78755710  0.97266315  0.99619006    -0.87700
H4293       H  0.76414976  0.92679754  0.99552053    -0.05900
H4294       H  0.83502178  0.56049789  0.02412145    -0.06100
C4295       C  0.76659616  0.94801796  0.99145180     0.87400
C4296       C  0.78936370  0.54802587  0.97825326     0.88000
C4297       C  0.82356402  0.54138729  0.01666568     0.88100
H4298       H  0.70270634  0.94087568  0.02992234    -0.06100
O4299       O  0.68296946  0.96117314  0.00226570    -0.75100
Mg4300     Mg  0.79703817  0.97300191  0.01873352     1.58000
H4301       H  0.68161384  0.94432874  0.98217540    -0.06100
C4302       C  0.79586439  0.97851174  0.95122906     0.93000
O4303       O  0.85897955  0.50346864  0.99082675    -0.82400
C4304       C  0.86656324  0.49755256  0.00302761     0.93100
O4305       O  0.70719430  0.03107003  0.96211757    -0.82300
Mg4306     Mg  0.69540991  0.99418712  0.02156284     1.58200
O4307       O  0.81483396  0.98690289  0.96179684    -0.80700
O4308       O  0.74485730  0.53053611  0.05385364    -0.82400
O4309       O  0.78227453  0.75588422  0.02342013    -0.88000
C4310       C  0.69265862  0.72708392  0.01161273     0.88100
Mg4311     Mg  0.82088337  0.80007703  0.01855520     1.58100
O4312       O  0.72466228  0.68675121  0.99423713    -0.87700
O4313       O  0.76480335  0.70615439  0.02297861    -0.75000
C4314       C  0.80048610  0.80419475  0.94826437     0.93100
O4315       O  0.75003791  0.79747878  0.01962897    -0.74800
O4316       O  0.81191117  0.82256943  0.95896594    -0.82300
Mg4317     Mg  0.74354591  0.75603518  0.03272540     1.58000
C4318       C  0.71881320  0.68069320  0.94910283     0.93000
O4319       O  0.73873568  0.71832073  0.04745991    -0.80600
H4320       H  0.74809227  0.66426549  0.99546472    -0.05900
C4321       C  0.72808450  0.76094359  0.97371865     0.88000
O4322       O  0.83367625  0.77921403  0.99965378    -0.75100
O4323       O  0.71423222  0.72435300  0.01619559    -0.87900
O4324       O  0.69981734  0.67148057  0.95956552    -0.80700
C4325       C  0.64456824  0.63848782  0.00018837     0.93200
C4326       C  0.71375651  0.69441200  0.05024057     0.93000
Mg4327     Mg  0.77326640  0.73935293  0.96687199     1.58000
O4328       O  0.78241198  0.77558321  0.94982716    -0.80600
O4329       O  0.76624654  0.70001859  0.98165916    -0.74800
O4330       O  0.66161630  0.64978073  0.01129529    -0.80700
O4331       O  0.77267478  0.78750088  0.05042052    -0.82400
O4332       O  0.85091422  0.84784899  0.98832024    -0.80700
C4333       C  0.74595999  0.68256809  0.99053775     0.87400
O4334       O  0.80141364  0.77326622  0.98261249    -0.87900
O4335       O  0.73317690  0.73933465  0.97494133    -0.88000
O4336       O  0.74839183  0.78856108  0.97658709    -0.75000
Mg4337     Mg  0.71293038  0.68103648  0.01671188     1.58000
O4338       O  0.65302802  0.65003146  0.98768008    -0.82400
H4339       H  0.80899881  0.73785020  0.02789675    -0.06100
O4340       O  0.78921135  0.80830553  0.00567479    -0.87700
H4341       H  0.76872512  0.83379108  0.00610263    -0.05900
H4342       H  0.83476911  0.76306543  0.97970211    -0.06100
C4343       C  0.76970514  0.81430486  0.01035864     0.87400
C4344       C  0.78643003  0.73372313  0.02489446     0.88000
C4345       C  0.82382796  0.77170748  0.98687550     0.88100
H4346       H  0.70540790  0.75610524  0.97045837    -0.06100
O4347       O  0.68243461  0.71864814  0.99891174    -0.75100
Mg4348     Mg  0.79967150  0.81517937  0.98294363     1.58000
H4349       H  0.68261184  0.73722092  0.01845059    -0.06100
C4350       C  0.79902468  0.81107415  0.05152320     0.93000
O4351       O  0.86120228  0.84596408  0.01165858    -0.82400
C4352       C  0.86867585  0.85837376  0.99927045     0.93100
O4353       O  0.69785651  0.67579092  0.04027789    -0.82300
Mg4354     Mg  0.69441418  0.69540758  0.98054908     1.58200
O4355       O  0.81671543  0.82202098  0.04062389    -0.80700
O4356       O  0.74501699  0.70458465  0.95013769    -0.82400
O4357       O  0.52524820  0.76582130  0.02423979    -0.88000
C4358       C  0.96603295  0.68007005  0.00748578     0.88100
Mg4359     Mg  0.51963139  0.80576385  0.02171115     1.58100
O4360       O  0.53798786  0.71794450  0.99064530    -0.87700
O4361       O  0.55849125  0.74981655  0.02164962    -0.75000
C4362       C  0.49871904  0.80528316  0.95054067     0.93100
O4363       O  0.95271230  0.73521574  0.01817298    -0.74800
O4364       O  0.49181364  0.81453589  0.96206593    -0.82300
Mg4365     Mg  0.98507943  0.72440335  0.03120029     1.58000
C4366       C  0.54015221  0.72150413  0.94537147     0.93000
O4367       O  0.01266623  0.71149246  0.04637183    -0.80600
H4368       H  0.58375463  0.73950671  0.99202941    -0.05900
C4369       C  0.96914880  0.72722370  0.97143133     0.88000
O4370       O  0.55454237  0.82353790  0.00324136    -0.75100
O4371       O  0.98990214  0.69976054  0.01338096    -0.87900
O4372       O  0.52971141  0.70157229  0.95533257    -0.80700
C4373       C  0.00668162  0.63668478  0.99081963     0.93200
C4374       C  0.02294330  0.69291955  0.04696757     0.93000
Mg4375     Mg  0.53599569  0.77281879  0.96615792     1.58000
O4376       O  0.50959292  0.78712539  0.95080302    -0.80600
O4377       O  0.56736674  0.76130714  0.97961415    -0.74800
O4378       O  0.01179451  0.65045502  0.00303398    -0.80700
O4379       O  0.97924114  0.74863571  0.05030958    -0.82400
O4380       O  0.50447591  0.84592892  0.99502490    -0.80700
C4381       C  0.56374466  0.73918436  0.98750323     0.87400
O4382       O  0.53008980  0.79748728  0.98403363    -0.87900
O4383       O  0.99549915  0.73152735  0.97282807    -0.88000
O4384       O  0.96193388  0.74700103  0.97562303    -0.75000
Mg4385     Mg  0.53285968  0.70033658  0.01220841     1.58000
O4386       O  0.00481962  0.64880205  0.97915117    -0.82400
H4387       H  0.56935818  0.79161455  0.02998604    -0.06100
O4388       O  0.98152577  0.77850785  0.00700398    -0.87700
H4389       H  0.93570812  0.75672621  0.00594694    -0.05900
H4390       H  0.57404365  0.83067961  0.98349167    -0.06100
C4391       C  0.95592471  0.75720183  0.01029788     0.87400
C4392       C  0.55159859  0.77002119  0.02556399     0.88000
C4393       C  0.55362441  0.81784230  0.98986129     0.88100
H4394       H  0.95160258  0.70577748  0.96678772    -0.06100
O4395       O  0.96488448  0.67457149  0.99407232    -0.75100
Mg4396     Mg  0.98645756  0.79611681  0.98537624     1.58000
H4397       H  0.94547117  0.66777737  0.01382381    -0.06100
C4398       C  0.98180945  0.77479171  0.05246911     0.93000
O4399       O  0.51319291  0.84763722  0.01875733    -0.82400
C4400       C  0.50929250  0.85932612  0.00737487     0.93100
O4401       O  0.52825485  0.68198071  0.03556817    -0.82300
Mg4402     Mg  0.00019668  0.69137790  0.97581069     1.58200
O4403       O  0.99134755  0.79522773  0.04274312    -0.80700
O4404       O  0.54285003  0.74794757  0.94697220    -0.82400
O4405       O  0.68341150  0.56505257  0.64150473    -0.88000
C4406       C  0.62798900  0.59586568  0.65935826     0.88100
Mg4407     Mg  0.67847517  0.51995038  0.64422382     1.58100
O4408       O  0.70330651  0.63129344  0.67348436    -0.87700
O4409       O  0.71696992  0.61434482  0.64224189    -0.75000
C4410       C  0.66569518  0.50965471  0.71584300     0.93100
O4411       O  0.61206921  0.52493508  0.64998422    -0.74800
O4412       O  0.65803011  0.99068384  0.70528348    -0.82300
Mg4413     Mg  0.64245815  0.56625769  0.63592604     1.58000
C4414       C  0.71168503  0.63265433  0.71831360     0.93000
O4415       O  0.66767130  0.60372099  0.61957573    -0.80600
H4416       H  0.74870646  0.65394446  0.67055618    -0.05900
C4417       C  0.63664090  0.55600063  0.69448320     0.88000
O4418       O  0.71643242  0.53885254  0.66146939    -0.75100
O4419       O  0.65069492  0.59808193  0.65318236    -0.87900
O4420       O  0.70237032  0.64400418  0.70859254    -0.80700
C4421       C  0.67229753  0.68185300  0.67345119     0.93200
C4422       C  0.67577990  0.63184740  0.61828754     0.93000
Mg4423     Mg  0.70357393  0.57582372  0.69785002     1.58000
O4424       O  0.67829774  0.53834159  0.71391849    -0.80600
O4425       O  0.73369253  0.61676093  0.68340075    -0.74800
O4426       O  0.67637471  0.67170588  0.66147227    -0.80700
O4427       O  0.63415782  0.53495331  0.61745009    -0.82400
O4428       O  0.66736632  0.96894897  0.67212402    -0.80700
C4429       C  0.72928645  0.63510953  0.67573368     0.87400
O4430       O  0.69460687  0.54311195  0.68088675    -0.87900
O4431       O  0.66290930  0.57738159  0.69225545    -0.88000
O4432       O  0.62839967  0.52832927  0.69105369    -0.75000
Mg4433     Mg  0.69373915  0.64021223  0.65211321     1.58000
O4434       O  0.67147333  0.66924174  0.68543206    -0.82400
H4435       H  0.72618687  0.58203915  0.63417439    -0.06100
O4436       O  0.64262359  0.51071458  0.65989649    -0.87700
H4437       H  0.59714112  0.48722625  0.66244264    -0.05900
H4438       H  0.73835021  0.55288275  0.68076151    -0.06100
C4439       C  0.61656098  0.50646976  0.65748225     0.87400
C4440       C  0.70937295  0.58672259  0.63904372     0.88000
C4441       C  0.71723897  0.54503623  0.67476603     0.88100
H4442       H  0.61999201  0.56105961  0.69925636    -0.06100
O4443       O  0.62903883  0.60256277  0.67260429    -0.75100
Mg4444     Mg  0.65066253  0.50133503  0.68155143     1.58000
H4445       H  0.60668166  0.58743689  0.65345759    -0.06100
C4446       C  0.63662021  0.51162410  0.61451534     0.93000
O4447       O  0.67428859  0.47306204  0.64819618    -0.82400
C4448       C  0.67211126  0.95947101  0.66005091     0.93100
O4449       O  0.68274090  0.64976588  0.62917462    -0.82300
Mg4450     Mg  0.66804096  0.62248884  0.68933600     1.58200
O4451       O  0.64652206  0.49982987  0.62376321    -0.80700
O4452       O  0.71247097  0.60806734  0.71632443    -0.82400
C4453       C  0.63437449  0.65516140  0.86201200    -0.10500
C4454       C  0.61178257  0.65993257  0.86820541    -0.04300
C4455       C  0.59342943  0.66800186  0.86019011    -0.10500
C4456       C  0.59681903  0.67055656  0.84503884     0.10500
C4457       C  0.62028105  0.66670568  0.83843139    -0.02200
C4458       C  0.63969527  0.65977360  0.84699704     0.10300
C4459       C  0.66343793  0.65734108  0.84027869    -0.12300
C4460       C  0.66839541  0.66191521  0.82547845    -0.12300
C4461       C  0.64905972  0.66791650  0.81677439     0.10300
C4462       C  0.62436392  0.66981808  0.82323915    -0.02200
C4463       C  0.57726762  0.67622212  0.83632410    -0.12400
C4464       C  0.58032174  0.67774811  0.82131616    -0.12400
C4465       C  0.60374926  0.67479647  0.81454241     0.10500
C4466       C  0.60781416  0.67740184  0.79936403    -0.10500
C4467       C  0.63312441  0.67688824  0.79347633    -0.04300
C4468       C  0.65380077  0.67254461  0.80177921    -0.10500
H4469       H  0.67858361  0.65218820  0.84646622     0.07800
H4470       H  0.68739080  0.66042505  0.82086862     0.07800
H4471       H  0.55910929  0.67899190  0.84107779     0.07900
H4472       H  0.56458298  0.68192039  0.81504457     0.07900
H4473       H  0.60901790  0.65829214  0.87981217     0.04400
H4474       H  0.63620413  0.67855941  0.78189424     0.04400
C4475       C  0.61249314  0.96557114  0.86852068    -0.10500
C4476       C  0.58647763  0.94460874  0.87606900    -0.04300
C4477       C  0.56153407  0.91963476  0.86931270    -0.10500
C4478       C  0.56186111  0.91617497  0.85413611     0.10500
C4479       C  0.58803512  0.93739079  0.84618878    -0.02200
C4480       C  0.61375709  0.96177435  0.85344399     0.10300
C4481       C  0.63973179  0.98177712  0.84541037    -0.12300
C4482       C  0.64056835  0.97810340  0.83050180    -0.12300
C4483       C  0.61529854  0.95458943  0.82308789     0.10300
C4484       C  0.58862988  0.93401532  0.83096749    -0.02200
C4485       C  0.53667428  0.89248844  0.84666534    -0.12400
C4486       C  0.53697584  0.88956245  0.83167062    -0.12400
C4487       C  0.56264858  0.90993018  0.82363868     0.10500
C4488       C  0.56355346  0.90699669  0.80847124    -0.10500
C4489       C  0.58970778  0.92766573  0.80110391    -0.04300
C4490       C  0.61567045  0.95062146  0.80799296    -0.10500
H4491       H  0.65962855  0.00049956  0.85061921     0.07800
H4492       H  0.66107594  0.99396233  0.82476558     0.07800
H4493       H  0.51631469  0.87625821  0.85237575     0.07900
H4494       H  0.51699477  0.87110891  0.82637484     0.07900
H4495       H  0.58647878  0.94682253  0.88769993     0.04400
H4496       H  0.58987352  0.92573856  0.78943997     0.04400
O4497       O  0.92154207  0.59361462  0.64223667    -0.88000
C4498       C  0.89395620  0.50563247  0.65481674     0.88100
Mg4499     Mg  0.96750183  0.63214115  0.64507049     1.58100
O4500       O  0.86329935  0.54307987  0.67530222    -0.87700
O4501       O  0.87312808  0.57925409  0.64596138    -0.75000
C4502       C  0.99510781  0.62512673  0.71476914     0.93100
O4503       O  0.96159282  0.56021235  0.64471820    -0.74800
O4504       O  0.50989346  0.63446786  0.70300533    -0.82300
Mg4505     Mg  0.91810228  0.55276046  0.63284775     1.58000
C4506       C  0.87003809  0.54242416  0.72026390     0.93000
O4507       O  0.87724322  0.54416279  0.61886986    -0.80600
H4508       H  0.84077516  0.56651506  0.67634062    -0.05900
C4509       C  0.94235750  0.54825874  0.69197623     0.88000
O4510       O  0.95231360  0.64867678  0.66489878    -0.75100
O4511       O  0.88944470  0.52609588  0.65022830    -0.87900
O4512       O  0.85795992  0.52357971  0.70971374    -0.80700
C4513       C  0.81142573  0.96162649  0.67250871     0.93200
C4514       C  0.84825302  0.52748193  0.61827635     0.93000
Mg4515     Mg  0.92397173  0.59482890  0.70027222     1.58000
O4516       O  0.96606631  0.60747144  0.71489659    -0.80600
O4517       O  0.88020693  0.58557314  0.68807606    -0.74800
O4518       O  0.81784798  0.97808959  0.66117609    -0.80700
O4519       O  0.94685531  0.57916766  0.61409947    -0.82400
O4520       O  0.52513859  0.66661675  0.67128918    -0.80700
C4521       C  0.86034191  0.56470479  0.67986733     0.87400
O4522       O  0.95284947  0.62087565  0.68269659    -0.87900
O4523       O  0.92089466  0.55362414  0.69135531    -0.88000
O4524       O  0.96922942  0.56776397  0.68794466    -0.75000
Mg4525     Mg  0.84828371  0.52869674  0.65340228     1.58000
O4526       O  0.82781963  0.97128097  0.68394254    -0.82400
H4527       H  0.90446159  0.62154145  0.63882006    -0.06100
O4528       O  0.97831482  0.60223839  0.65779106    -0.87700
H4529       H  0.00080584  0.57876291  0.65662910    -0.05900
H4530       H  0.94280094  0.65442170  0.68553616    -0.06100
C4531       C  0.98132213  0.58072460  0.65310934     0.87400
C4532       C  0.90008704  0.59909427  0.64210487     0.88000
C4533       C  0.94936211  0.64198099  0.67814750     0.88100
H4534       H  0.93804098  0.52616909  0.69580874    -0.06100
O4535       O  0.89156144  0.49912617  0.66809278    -0.75100
Mg4536     Mg  0.99371973  0.61746600  0.67960557     1.58000
H4537       H  0.90112345  0.49370582  0.64742431    -0.06100
C4538       C  0.97148262  0.60451483  0.61264590     0.93000
O4539       O  0.51547473  0.67342651  0.64852558    -0.82400
C4540       C  0.53224277  0.68249049  0.65980609     0.93100
O4541       O  0.83241706  0.51449856  0.62946990    -0.82300
Mg4542     Mg  0.87528409  0.51427738  0.68799360     1.58200
O4543       O  0.98434651  0.62297197  0.62321877    -0.80700
O4544       O  0.89449877  0.56811897  0.71896885    -0.82400
O4545       O  0.91510907  0.84000973  0.68943059    -0.88000
C4546       C  0.94756345  0.77969087  0.68357949     0.88100
Mg4547     Mg  0.87044837  0.83235512  0.68344339     1.58100
O4548       O  0.97880871  0.84228346  0.65978812    -0.87700
O4549       O  0.96356135  0.87410662  0.68647614    -0.75000
C4550       C  0.85513987  0.78306330  0.61632783     0.93100
O4551       O  0.87650262  0.76651688  0.68884790    -0.74800
O4552       O  0.83940073  0.78243976  0.62711710    -0.82300
Mg4553     Mg  0.91734103  0.80467602  0.70128487     1.58000
C4554       C  0.97681401  0.81950590  0.61467333     0.93000
O4555       O  0.95518181  0.83876372  0.71630411    -0.80600
H4556       H  0.00172270  0.88733371  0.65586005    -0.05900
C4557       C  0.90273138  0.76264946  0.64484765     0.88000
O4558       O  0.89002929  0.85902797  0.66253183    -0.75100
O4559       O  0.94962263  0.80479037  0.68617169    -0.87900
O4560       O  0.98944070  0.81717494  0.62626823    -0.80700
C4561       C  0.53312602  0.81977036  0.66903057     0.93200
C4562       C  0.98403397  0.85090619  0.71793797     0.93000
Mg4563     Mg  0.92189511  0.82373456  0.63172406     1.58000
O4564       O  0.88228429  0.78770215  0.61771802    -0.80600
O4565       O  0.96419670  0.86302458  0.64310714    -0.74800
O4566       O  0.52427703  0.83034117  0.67937837    -0.80700
O4567       O  0.88473342  0.80469341  0.71750060    -0.82400
O4568       O  0.81820063  0.80547891  0.65400986    -0.80700
C4569       C  0.98262840  0.86502209  0.65301968     0.87400
O4570       O  0.89189664  0.82640882  0.64752031    -0.87900
O4571       O  0.92441058  0.78929645  0.64415601    -0.88000
O4572       O  0.87539476  0.75684841  0.64727207    -0.75000
Mg4573     Mg  0.99034254  0.84846667  0.68278821     1.58000
O4574       O  0.01778935  0.80930529  0.65733150    -0.82400
H4575       H  0.93064172  0.88514427  0.69090862    -0.06100
O4576       O  0.86042862  0.78866618  0.67355012    -0.87700
H4577       H  0.83884008  0.74317841  0.67612137    -0.05900
H4578       H  0.90394734  0.86924281  0.64181966    -0.06100
C4579       C  0.85747422  0.76536324  0.67947831     0.87400
C4580       C  0.93604042  0.86701413  0.68916345     0.88000
C4581       C  0.89540349  0.85209290  0.65014126     0.88100
H4582       H  0.90714065  0.74375958  0.64346532    -0.06100
O4583       O  0.95270793  0.77291579  0.67111052    -0.75100
Mg4584     Mg  0.84988678  0.78437784  0.65091889     1.58000
H4585       H  0.94032497  0.76279884  0.69199543    -0.06100
C4586       C  0.86081729  0.80716640  0.71763344     0.93000
O4587       O  0.82433073  0.82593693  0.67605304    -0.82400
C4588       C  0.80987070  0.81712014  0.66408595     0.93100
O4589       O  0.50164348  0.85381075  0.70742557    -0.82300
Mg4590     Mg  0.97030427  0.79894608  0.64991855     1.58200
O4591       O  0.84994760  0.81223570  0.70616613    -0.80700
O4592       O  0.95234199  0.82096315  0.61502756    -0.82400
C4593       C  0.84118824  0.93581911  0.86171040    -0.10500
C4594       C  0.84483182  0.91294531  0.86818151    -0.04300
C4595       C  0.84344472  0.88840807  0.86043360    -0.10500
C4596       C  0.83889569  0.88676328  0.84533554     0.10500
C4597       C  0.83654118  0.91068921  0.83834113    -0.02200
C4598       C  0.83747690  0.93525573  0.84658470     0.10300
C4599       C  0.83494308  0.95849814  0.83949299    -0.12300
C4600       C  0.83184298  0.95796632  0.82452041    -0.12300
C4601       C  0.83052322  0.93382542  0.81616142     0.10300
C4602       C  0.83256792  0.90970581  0.82313689    -0.02200
C4603       C  0.83678153  0.86220912  0.83707518    -0.12400
C4604       C  0.83231470  0.86094247  0.82216680    -0.12400
C4605       C  0.83026040  0.88442507  0.81496983     0.10500
C4606       C  0.82528889  0.88320273  0.79988052    -0.10500
C4607       C  0.82404042  0.90749937  0.79329893    -0.04300
C4608       C  0.82641725  0.93258354  0.80104039    -0.10500
H4609       H  0.83570845  0.97745896  0.84550291     0.07800
H4610       H  0.83006623  0.97645129  0.81953652     0.07800
H4611       H  0.83849199  0.84374059  0.84212501     0.07900
H4612       H  0.83041735  0.84132447  0.81631839     0.07900
H4613       H  0.84680320  0.91320495  0.87984189     0.04400
H4614       H  0.82188511  0.90726502  0.78166937     0.04400
C4615       C  0.49817070  0.74638540  0.46803974    -0.10500
C4616       C  0.49187197  0.71896695  0.46122361    -0.04300
C4617       C  0.49170910  0.69470806  0.46853788    -0.10500
C4618       C  0.49813305  0.69779985  0.48351448     0.10500
C4619       C  0.50351740  0.72510075  0.49092232    -0.02200
C4620       C  0.50370394  0.74962146  0.48316551     0.10300
C4621       C  0.50862791  0.77605460  0.49080851    -0.12300
C4622       C  0.01299193  0.77842540  0.50579446    -0.12300
C4623       C  0.01300862  0.75463184  0.51367710     0.10300
C4624       C  0.00859605  0.72777870  0.50612205    -0.02200
C4625       C  0.49876138  0.67425049  0.49131234    -0.12400
C4626       C  0.00435335  0.67712542  0.50613798    -0.12400
C4627       C  0.00905276  0.70345558  0.51375530     0.10500
C4628       C  0.01451801  0.70642417  0.52880096    -0.10500
C4629       C  0.01809454  0.73257071  0.53594658    -0.04300
C4630       C  0.01763248  0.75675739  0.52887568    -0.10500
H4631       H  0.50864110  0.79493580  0.48525408     0.07800
H4632       H  0.01651274  0.79914672  0.51119956     0.07800
H4633       H  0.49483027  0.65331717  0.48598047     0.07900
H4634       H  0.00478595  0.65840191  0.51163035     0.07900
H4635       H  0.48818678  0.71688090  0.44965020     0.04400
H4636       H  0.02028246  0.73363891  0.54759097     0.04400
C4637       C  0.76262581  0.75738810  0.47013681    -0.10500
C4638       C  0.74014487  0.73221428  0.46250369    -0.04300
C4639       C  0.71597532  0.70720673  0.46927149    -0.10500
C4640       C  0.71343600  0.70745239  0.48440776     0.10500
C4641       C  0.73679204  0.73238249  0.49247415    -0.02200
C4642       C  0.76170255  0.75731449  0.48532087     0.10300
C4643       C  0.78506331  0.78111020  0.49351415    -0.12300
C4644       C  0.78421119  0.78048738  0.50851939    -0.12300
C4645       C  0.75932557  0.75672305  0.51576695     0.10300
C4646       C  0.73504437  0.73264522  0.50770168    -0.02200
C4647       C  0.68848223  0.68371760  0.49167885    -0.12400
C4648       C  0.68623604  0.68452374  0.50667025    -0.12400
C4649       C  0.70921855  0.70873927  0.51485986     0.10500
C4650       C  0.70732773  0.71023874  0.53002357    -0.10500
C4651       C  0.73150052  0.73401655  0.53763976    -0.04300
C4652       C  0.75767680  0.75655389  0.53089988    -0.10500
H4653       H  0.80442524  0.80010440  0.48834706     0.07800
H4654       H  0.80283109  0.79917080  0.51443503     0.07800
H4655       H  0.67040886  0.66449800  0.48578159     0.07900
H4656       H  0.66643111  0.66602527  0.51182981     0.07900
H4657       H  0.74055983  0.73279956  0.45081706     0.04400
H4658       H  0.73077116  0.73387264  0.54932736     0.04400
C4659       C  0.72127762  0.03178540  0.46896591    -0.10500
C4660       C  0.74836533  0.03764292  0.46219123    -0.04300
C4661       C  0.77174763  0.03544379  0.46932924    -0.10500
C4662       C  0.76882110  0.02927391  0.48439772     0.10500
C4663       C  0.74169494  0.02433573  0.49164297    -0.02200
C4664       C  0.71769831  0.02519937  0.48383864     0.10300
C4665       C  0.69100107  0.01988501  0.49112428    -0.12300
C4666       C  0.68730014  0.51291383  0.50573135    -0.12300
C4667       C  0.71044008  0.51169213  0.51367383     0.10300
C4668       C  0.73822061  0.51794059  0.50667153    -0.02200
C4669       C  0.79214194  0.02847067  0.49249848    -0.12400
C4670       C  0.78896310  0.52271797  0.50734261    -0.12400
C4671       C  0.76223955  0.51731507  0.51463239     0.10500
C4672       C  0.75815399  0.51059173  0.52958678    -0.10500
C4673       C  0.73059443  0.50426693  0.53601530    -0.04300
C4674       C  0.70651322  0.50392665  0.52841280    -0.10500
H4675       H  0.67267897  0.02111932  0.48558119     0.07800
H4676       H  0.66613234  0.50857524  0.51079326     0.07800
H4677       H  0.81325369  0.03270240  0.48743260     0.07900
H4678       H  0.80752395  0.52228564  0.51308648     0.07900
H4679       H  0.75017583  0.04169714  0.45068237     0.04400
H4680       H  0.72780954  0.49967254  0.54748048     0.04400
O4681       O  0.96598894  0.50937611  0.98916647    -0.88000
C4682       C  0.53116759  0.55738473  0.02006585     0.88100
Mg4683     Mg  0.93227482  0.96145009  0.99153547     1.58100
O4684       O  0.55786626  0.53578458  0.98933195    -0.87700
O4685       O  0.50166564  0.53872153  0.97415600    -0.75000
C4686       C  0.00859925  0.88849750  0.00835370     0.93100
O4687       O  0.95966421  0.99959967  0.02319153    -0.74800
O4688       O  0.98299501  0.88739644  0.01052015    -0.82300
Mg4689     Mg  0.97135710  0.53910408  0.00728392     1.58000
C4690       C  0.61729880  0.50036476  0.99875973     0.93000
O4691       O  0.98182634  0.58320892  0.99499247    -0.80600
H4692       H  0.56747783  0.53808255  0.96835656    -0.05900
C4693       C  0.53798430  0.97700622  0.02373071     0.88000
O4694       O  0.96114199  0.94660164  0.97778909    -0.75100
O4695       O  0.51957861  0.55331033  0.00794765    -0.87900
O4696       O  0.61491123  0.52444342  0.99890796    -0.80700
C4697       C  0.61544531  0.60940013  0.00158258     0.93200
C4698       C  0.50571510  0.60695402  0.99045186     0.93000
Mg4699     Mg  0.54326100  0.95798447  0.99360523     1.58000
O4700       O  0.53305266  0.91374048  0.00587014    -0.80600
O4701       O  0.55608364  0.99717566  0.97748961    -0.74800
O4702       O  0.59097268  0.60748670  0.99655547    -0.80700
O4703       O  0.92064629  0.52478086  0.00560783    -0.82400
O4704       O  0.92254570  0.88864714  0.00180898    -0.80700
C4705       C  0.56095686  0.52453358  0.97803433     0.87400
O4706       O  0.99445111  0.94343456  0.99187205    -0.87900
O4707       O  0.54641232  0.98720552  0.01154734    -0.88000
O4708       O  0.01102842  0.95509864  0.02592144    -0.75000
Mg4709     Mg  0.54421394  0.57023705  0.98772951     1.58000
O4710       O  0.61616471  0.58622624  0.00659796    -0.82400
H4711       H  0.95829367  0.50753641  0.96797262    -0.06100
O4712       O  0.95525156  0.95991228  0.01116596    -0.87700
H4713       H  0.94860919  0.95884397  0.03241122    -0.05900
H4714       H  0.99100385  0.93310381  0.97087069    -0.06100
C4715       C  0.95407937  0.97196102  0.02261705     0.87400
C4716       C  0.97434794  0.51818838  0.97679237     0.88000
C4717       C  0.98257676  0.94049557  0.97987175     0.88100
H4718       H  0.55369769  0.98713348  0.03271126    -0.06100
O4719       O  0.55188726  0.55072931  0.02283999    -0.75100
Mg4720     Mg  0.96893103  0.92468556  0.01162013     1.58000
H4721       H  0.52261168  0.56570501  0.02864438    -0.06100
C4722       C  0.89649483  0.99874301  0.00410896     0.93000
O4723       O  0.89643678  0.91120894  0.99424314    -0.82400
C4724       C  0.89763032  0.88747862  0.99796036     0.93100
O4725       O  0.53029637  0.60681602  0.98733455    -0.82300
Mg4726     Mg  0.58026734  0.53564507  0.00935975     1.58200
O4727       O  0.89755457  0.97404174  0.00208853    -0.80700
O4728       O  0.59409299  0.97359844  0.99729548    -0.82400
O4729       O  0.86356931  0.65906039  0.32403348    -0.88000
C4730       C  0.79703243  0.61866795  0.35510151     0.88100
Mg4731     Mg  0.89964678  0.70692171  0.32518502     1.58100
O4732       O  0.77227494  0.63504105  0.32220712    -0.87700
O4733       O  0.82708823  0.62565479  0.30999766    -0.75000
C4734       C  0.82903973  0.78559784  0.33942572     0.93100
O4735       O  0.87155459  0.67345244  0.35815218    -0.74800
O4736       O  0.85383888  0.78604903  0.34283206    -0.82300
Mg4737     Mg  0.85750452  0.63196456  0.34303357     1.58000
C4738       C  0.71846541  0.67852026  0.32521490     0.93000
O4739       O  0.84521179  0.58660576  0.33094526    -0.80600
H4740       H  0.76802667  0.63154429  0.30077529    -0.05900
C4741       C  0.79429278  0.69892420  0.35486038     0.88000
O4742       O  0.87328662  0.72232750  0.31054283    -0.75100
O4743       O  0.80920193  0.62009223  0.34338469    -0.87900
O4744       O  0.71780429  0.65391998  0.32911042    -0.80700
C4745       C  0.71117631  0.56598179  0.33637365     0.93200
C4746       C  0.82016717  0.56125438  0.32925683     0.93000
Mg4747     Mg  0.79371534  0.71575432  0.32359518     1.58000
O4748       O  0.80502523  0.76109486  0.33529910    -0.80600
O4749       O  0.78144051  0.67421758  0.30870791    -0.74800
O4750       O  0.73562679  0.56552252  0.33317580    -0.80700
O4751       O  0.90850232  0.64450637  0.34192025    -0.82400
O4752       O  0.91279321  0.78106621  0.33526225    -0.80700
C4753       C  0.77335492  0.64605915  0.31023087     0.87400
O4754       O  0.84126766  0.72798186  0.32425854    -0.87900
O4755       O  0.78586782  0.68822789  0.34261543    -0.88000
O4756       O  0.82188748  0.71916440  0.35755529    -0.75000
Mg4757     Mg  0.78353661  0.59864647  0.32375778     1.58000
O4758       O  0.71131443  0.59087069  0.33928294    -0.82400
H4759       H  0.87036492  0.65477919  0.30314569    -0.06100
O4760       O  0.87781066  0.71163544  0.34470310    -0.87700
H4761       H  0.88581612  0.71642618  0.36591724    -0.05900
H4762       H  0.84576499  0.73834859  0.30337107    -0.06100
C4763       C  0.87901716  0.70141299  0.35658176     0.87400
C4764       C  0.85459216  0.64693884  0.31206845     0.88000
C4765       C  0.85328946  0.73034863  0.31243445     0.88100
H4766       H  0.77797386  0.69025805  0.36355798    -0.06100
O4767       O  0.77619408  0.62583998  0.35640084    -0.75100
Mg4768     Mg  0.86562955  0.74750488  0.34436586     1.58000
H4769       H  0.80464451  0.61168667  0.36449895    -0.06100
C4770       C  0.93328639  0.66939710  0.33925626     0.93000
O4771       O  0.93740771  0.75732292  0.32702822    -0.82400
C4772       C  0.93705087  0.78155284  0.33094300     0.93100
O4773       O  0.79467286  0.56018438  0.32697641    -0.82300
Mg4774     Mg  0.74985509  0.64076181  0.34112191     1.58200
O4775       O  0.93328314  0.69390723  0.33578024    -0.80700
O4776       O  0.74347635  0.70343061  0.32318975    -0.82400
O4777       O  0.63378343  0.83428856  0.65540669    -0.88000
C4778       C  0.69734523  0.87653763  0.68790109     0.88100
Mg4779     Mg  0.59876515  0.78637190  0.65541177     1.58100
O4780       O  0.72630563  0.86004602  0.65633280    -0.87700
O4781       O  0.67122064  0.86633277  0.64176060    -0.75000
C4782       C  0.67008513  0.71000568  0.67301770     0.93100
O4783       O  0.62393363  0.81904599  0.68935843    -0.74800
O4784       O  0.64457101  0.70873235  0.67560694    -0.82300
Mg4785     Mg  0.63795749  0.86064046  0.67492261     1.58000
C4786       C  0.78111864  0.81802881  0.66257685     0.93000
O4787       O  0.65034233  0.90659330  0.66425662    -0.80600
H4788       H  0.73450231  0.86436524  0.63519779    -0.05900
C4789       C  0.70124521  0.79628508  0.68851661     0.88000
O4790       O  0.62727645  0.77206404  0.64154131    -0.75100
O4791       O  0.68614282  0.87402605  0.67579738    -0.87900
O4792       O  0.78099477  0.84243296  0.66643379    -0.80700
C4793       C  0.78344539  0.93088219  0.67214261     0.93200
C4794       C  0.67392578  0.93110808  0.66009352     0.93000
Mg4795     Mg  0.70613477  0.78004745  0.65739483     1.58000
O4796       O  0.69353133  0.73442816  0.66864511    -0.80600
O4797       O  0.72010528  0.82153514  0.64273924    -0.74800
O4798       O  0.75887444  0.92919659  0.66727926    -0.80700
O4799       O  0.58687011  0.84656509  0.67353087    -0.82400
O4800       O  0.58497919  0.71270631  0.66512950    -0.80700
C4801       C  0.72764548  0.84954761  0.64445319     0.87400
O4802       O  0.65811752  0.76666810  0.65627739    -0.87900
O4803       O  0.71116568  0.80742175  0.67659589    -0.88000
O4804       O  0.67354329  0.77545462  0.69020567    -0.75000
Mg4805     Mg  0.71288846  0.89490048  0.65645620     1.58000
O4806       O  0.78475002  0.90696893  0.67562150    -0.82400
H4807       H  0.62833083  0.83701773  0.63425979    -0.06100
O4808       O  0.61876603  0.78151959  0.67542186    -0.87700
H4809       H  0.60919067  0.77582099  0.69640611    -0.05900
H4810       H  0.65624269  0.75703510  0.63525837    -0.06100
C4811       C  0.61654393  0.79119440  0.68735033     0.87400
C4812       C  0.64352138  0.84560842  0.64349789     0.88000
C4813       C  0.64742603  0.76449924  0.64407502     0.88100
H4814       H  0.71631191  0.80499515  0.69779254    -0.06100
O4815       O  0.71825535  0.86989826  0.69018549    -0.75100
Mg4816     Mg  0.63147784  0.74650195  0.67570741     1.58000
H4817       H  0.68857035  0.88376712  0.69682373    -0.06100
C4818       C  0.56307466  0.82133223  0.66995225     0.93000
O4819       O  0.56106170  0.73614471  0.65584878    -0.82400
C4820       C  0.56112395  0.71202333  0.65989323     0.93100
O4821       O  0.69922276  0.93220384  0.65715870    -0.82300
Mg4822     Mg  0.74683205  0.85557887  0.67628714     1.58200
O4823       O  0.56458093  0.79812824  0.66547851    -0.80700
O4824       O  0.75667525  0.79336252  0.65909856    -0.82400
C4825       C  0.83738109  0.83515852  0.77638913     0.30100
C4826       C  0.85602087  0.82581211  0.76924393    -0.36200
C4827       C  0.84798582  0.81591978  0.75488206     0.16100
C4828       C  0.82346069  0.81544120  0.74789343     0.21900
C4829       C  0.80410113  0.82360911  0.75521990    -0.34300
C4830       C  0.81200024  0.83328414  0.76962039     0.16000
O4831       O  0.84387793  0.85040883  0.78878955    -0.26300
C4832       C  0.82210587  0.85806208  0.79010879     0.05800
C4833       C  0.80137400  0.84736755  0.77857977    -0.31200
O4834       O  0.82325343  0.81038970  0.73385535    -0.23000
C4835       C  0.84766630  0.80698742  0.73188521    -0.03000
C4836       C  0.86359727  0.80988518  0.74465212    -0.17500
H4837       H  0.87674785  0.82836794  0.77415025     0.20500
H4838       H  0.78557458  0.82464480  0.74976293     0.18900
H4839       H  0.78340803  0.85271247  0.77627251     0.18800
H4840       H  0.88538941  0.81062394  0.74595733     0.14700
C4841       C  0.81949292  0.78904503  0.58525351     0.30100
C4842       C  0.80019569  0.79622753  0.57734890    -0.36200
C4843       C  0.79936982  0.79140639  0.56245846     0.16100
C4844       C  0.81600991  0.77978055  0.55578120     0.21900
C4845       C  0.83634936  0.77374595  0.56365818    -0.34300
C4846       C  0.83733532  0.77880880  0.57859461     0.16000
O4847       O  0.82237612  0.79032820  0.59935721    -0.26300
C4848       C  0.84259158  0.78112007  0.60184607     0.05800
C4849       C  0.85294406  0.77384934  0.58932214    -0.31200
O4850       O  0.80639137  0.77036412  0.54248705    -0.23000
C4851       C  0.78355711  0.77630882  0.54057432    -0.03000
C4852       C  0.77899687  0.79038542  0.55255308    -0.17500
H4853       H  0.78548783  0.80340362  0.58255117     0.20500
H4854       H  0.84888807  0.76380580  0.55864892     0.18900
H4855       H  0.86957063  0.76620011  0.58829951     0.18800
H4856       H  0.75959879  0.79368872  0.55458739     0.14700
C4857       C  0.00095398  0.79830915  0.55404209     0.30100
C4858       C  0.97999348  0.80282112  0.56223128    -0.36200
C4859       C  0.98767730  0.81092697  0.57681719     0.16100
C4860       C  0.01399518  0.81410854  0.58313478     0.21900
C4861       C  0.03545558  0.81048521  0.57481895    -0.34300
C4862       C  0.02798087  0.80282768  0.56012598     0.16000
O4863       O  0.99569680  0.78530352  0.54107261    -0.26300
C4864       C  0.01992169  0.78179182  0.53857225     0.05800
C4865       C  0.04103814  0.79315212  0.55001895    -0.31200
O4866       O  0.01475140  0.81844231  0.59733110    -0.23000
C4867       C  0.98872462  0.81860294  0.60006846    -0.03000
C4868       C  0.97123827  0.81409334  0.58763362    -0.17500
H4869       H  0.95820997  0.79838786  0.55778189     0.20500
H4870       H  0.55574354  0.81182241  0.57962586     0.18900
H4871       H  0.56064680  0.78997911  0.55161732     0.18800
H4872       H  0.94862091  0.81166324  0.58680812     0.14700
C4873       C  0.83031894  0.50337744  0.75107721     0.30100
C4874       C  0.80881270  0.47728734  0.75846243    -0.36200
C4875       C  0.81656122  0.97434017  0.77265172     0.16100
C4876       C  0.84374056  0.99550841  0.77919619     0.21900
C4877       C  0.86465379  0.02239174  0.77201805    -0.34300
C4878       C  0.85684564  0.02538170  0.75780199     0.16000
O4879       O  0.83034851  0.50760777  0.73705833    -0.26300
C4880       C  0.85696857  0.53300349  0.73476107     0.05800
C4881       C  0.87417127  0.04528463  0.74733366    -0.31200
O4882       O  0.84933711  0.98492543  0.79116503    -0.23000
C4883       C  0.82522198  0.95678654  0.79240420    -0.03000
C4884       C  0.80391571  0.94941436  0.78129359    -0.17500
H4885       H  0.78877387  0.45911087  0.75308624     0.20500
H4886       H  0.88675964  0.03841737  0.77668447     0.18900
H4887       H  0.89759420  0.06396158  0.74830992     0.18800
H4888       H  0.78424619  0.92716709  0.77883619     0.14700
C4889       C  0.83048402  0.53140447  0.58197949     0.30100
C4890       C  0.83469815  0.54488066  0.56830588    -0.36200
C4891       C  0.81316913  0.52701870  0.55758358     0.16100
C4892       C  0.78952045  0.49775741  0.56017956     0.21900
C4893       C  0.78524390  0.98436844  0.57384659    -0.34300
C4894       C  0.80632787  0.50243389  0.58461714     0.16000
O4895       O  0.84764220  0.54410928  0.59355211    -0.26300
C4896       C  0.83402111  0.52331821  0.60385596     0.05800
C4897       C  0.80802350  0.49691757  0.59891862    -0.31200
O4898       O  0.76974851  0.98666698  0.54941451    -0.23000
C4899       C  0.78037694  0.50896566  0.53966077    -0.03000
C4900       C  0.80771249  0.53462392  0.54415959    -0.17500
H4901       H  0.85283285  0.56811429  0.56632648     0.20500
H4902       H  0.76590051  0.96194672  0.57609210     0.18900
H4903       H  0.79326126  0.97631062  0.60484697     0.18800
H4904       H  0.81924616  0.55706676  0.53926938     0.14700
C4905       C  0.00981941  0.64193422  0.58116769     0.30100
C4906       C  0.03149400  0.66683059  0.57316526    -0.36200
C4907       C  0.02372520  0.66789480  0.55873413     0.16100
C4908       C  0.99623612  0.64631141  0.55258621     0.21900
C4909       C  0.97509407  0.62068182  0.56043374    -0.34300
C4910       C  0.98305712  0.61939905  0.57483324     0.16000
O4911       O  0.01029822  0.63891298  0.59527941    -0.26300
C4912       C  0.98376298  0.61370366  0.59799966     0.05800
C4913       C  0.96608357  0.60048422  0.58564353    -0.31200
O4914       O  0.99080099  0.65536980  0.54011425    -0.23000
C4915       C  0.01538516  0.68289190  0.53811733    -0.03000
C4916       C  0.03686366  0.69129269  0.54925160    -0.17500
H4917       H  0.05190665  0.68536088  0.57813503     0.20500
H4918       H  0.95288584  0.60423316  0.55600531     0.18900
H4919       H  0.94277586  0.58148878  0.58494809     0.18800
H4920       H  0.05696066  0.71356270  0.55113656     0.14700
C4921       C  0.51183722  0.87641753  0.78049388     0.30100
C4922       C  0.49415338  0.87982282  0.76965502    -0.36200
C4923       C  0.49688938  0.87038605  0.75568471     0.16100
C4924       C  0.51591563  0.85867102  0.75251748     0.21900
C4925       C  0.53268158  0.85422434  0.76344142    -0.34300
C4926       C  0.52945987  0.86306936  0.77745695     0.16000
O4927       O  0.51766303  0.88930640  0.79347458    -0.26300
C4928       C  0.53888191  0.88367645  0.79904216     0.05800
C4929       C  0.54602193  0.86629940  0.78960761    -0.31200
O4930       O  0.51572205  0.85224663  0.73864122    -0.23000
C4931       C  0.99608180  0.85972903  0.73281223    -0.03000
C4932       C  0.98352250  0.87089206  0.74296793    -0.17500
H4933       H  0.98047770  0.89059288  0.77180310     0.20500
H4934       H  0.54808367  0.84551843  0.76110026     0.18900
H4935       H  0.56537636  0.86246944  0.79043046     0.18800
H4936       H  0.96633284  0.87758748  0.74125448     0.14700
C4937       C  0.54872505  0.65697999  0.77409018     0.30100
C4938       C  0.02178385  0.63528866  0.76689597    -0.36200
C4939       C  0.02047709  0.63918806  0.75196278     0.16100
C4940       C  0.54402493  0.66279720  0.74453928     0.21900
C4941       C  0.57051950  0.68507167  0.75180409    -0.34300
C4942       C  0.57175242  0.68123424  0.76675281     0.16000
O4943       O  0.55701248  0.65467395  0.78738437    -0.26300
C4944       C  0.58568787  0.67798777  0.78872772     0.05800
C4945       C  0.59556099  0.69564100  0.77624420    -0.31200
O4946       O  0.53882513  0.66082484  0.73046083    -0.23000
C4947       C  0.01140254  0.63567435  0.72883060    -0.03000
C4948       C  0.99890334  0.62149574  0.74188937    -0.17500
H4949       H  0.00382228  0.61568810  0.77240040     0.20500
H4950       H  0.58953995  0.70327877  0.74609234     0.18900
H4951       H  0.61855424  0.71380016  0.77383249     0.18800
H4952       H  0.97716498  0.60084793  0.74366559     0.14700
C4953       C  0.65854926  0.00487376  0.75332329     0.30100
C4954       C  0.65556952  0.01492865  0.76707207    -0.36200
C4955       C  0.65429104  0.99658234  0.77864894     0.16100
C4956       C  0.65618510  0.97030891  0.77677961     0.21900
C4957       C  0.65935752  0.96032996  0.76298427    -0.34300
C4958       C  0.66003061  0.97838834  0.75135855     0.16000
O4959       O  0.65935238  0.01825105  0.74109371    -0.26300
C4960       C  0.66093542  0.50004024  0.73102423     0.05800
C4961       C  0.66124852  0.97462094  0.73675908    -0.31200
O4962       O  0.64865929  0.95363948  0.78851708    -0.23000
C4963       C  0.64127790  0.96891147  0.79807806    -0.03000
C4964       C  0.64529070  0.99638022  0.79254638    -0.17500
H4965       H  0.65283943  0.03485618  0.76855146     0.20500
H4966       H  0.65925908  0.93889792  0.76136493     0.18900
H4967       H  0.66314194  0.95671678  0.73108525     0.18800
H4968       H  0.63683657  0.01071896  0.79704706     0.14700
C4969       C  0.71242288  0.64406061  0.75535025     0.30100
C4970       C  0.70174822  0.63286985  0.76921563    -0.36200
C4971       C  0.69772472  0.65269211  0.77857054     0.16100
C4972       C  0.70458673  0.68184964  0.77459899     0.21900
C4973       C  0.71582887  0.69323240  0.76084991    -0.34300
C4974       C  0.71891067  0.67309991  0.75136632     0.16000
O4975       O  0.71209783  0.62736943  0.74426440    -0.26300
C4976       C  0.71801470  0.64566344  0.73298921     0.05800
C4977       C  0.72263096  0.67453154  0.73677352    -0.31200
O4978       O  0.69349424  0.69410949  0.78364078    -0.23000
C4979       C  0.67921058  0.67278115  0.79360801    -0.03000
C4980       C  0.68138550  0.64652913  0.79106012    -0.17500
H4981       H  0.69414395  0.60925814  0.77199642     0.20500
H4982       H  0.71878753  0.71503212  0.75730456     0.18900
H4983       H  0.72505472  0.69261253  0.72968794     0.18800
H4984       H  0.66864759  0.62450019  0.79626107     0.14700
C4985       C  0.65436329  0.50471957  0.55273945     0.30100
C4986       C  0.64567884  0.52068575  0.56237594    -0.36200
C4987       C  0.63652194  0.50790792  0.57612065     0.16100
C4988       C  0.63628580  0.48143376  0.58025974     0.21900
C4989       C  0.64322619  0.96455367  0.57035188    -0.34300
C4990       C  0.65201652  0.47709666  0.55653978     0.16000
O4991       O  0.67063775  0.51618005  0.54090945    -0.26300
C4992       C  0.67834445  0.49537763  0.53688601     0.05800
C4993       C  0.66645033  0.97021252  0.54604374    -0.31200
O4994       O  0.63380587  0.47743443  0.59438492    -0.23000
C4995       C  0.63157910  0.50124690  0.59930801    -0.03000
C4996       C  0.63263817  0.52056130  0.58833858    -0.17500
H4997       H  0.64891663  0.54313670  0.55987077     0.20500
H4998       H  0.64473315  0.94467574  0.57359987     0.18900
H4999       H  0.67249758  0.95229925  0.54636188     0.18800
H5000       H  0.63454429  0.54295485  0.58943329     0.14700
C5001       C  0.67335450  0.64104914  0.58107735     0.30100
C5002       C  0.67576809  0.63497357  0.56649449    -0.36200
C5003       C  0.67321376  0.65446875  0.55652325     0.16100
C5004       C  0.66782526  0.67781743  0.56067426     0.21900
C5005       C  0.66472344  0.68342517  0.57526327    -0.34300
C5006       C  0.66837521  0.66464205  0.58523673     0.16000
O5007       O  0.67739420  0.62717050  0.59214457    -0.26300
C5008       C  0.67560807  0.64240170  0.60357555     0.05800
C5009       C  0.67003998  0.66604390  0.59994520    -0.31200
O5010       O  0.67324557  0.69740939  0.55024228    -0.23000
C5011       C  0.68289893  0.68717590  0.53926075    -0.03000
C5012       C  0.68225823  0.65979170  0.54247576    -0.17500
H5013       H  0.68163979  0.61778416  0.56323072     0.20500
H5014       H  0.66250677  0.70291797  0.57865240     0.18900
H5015       H  0.66710155  0.68153987  0.60707984     0.18800
H5016       H  0.69318395  0.64925080  0.53651645     0.14700
C5017       C  0.50019765  0.84900718  0.92080118     0.30100
C5018       C  0.50524828  0.87603800  0.91399094    -0.36200
C5019       C  0.51476070  0.87950109  0.89955368     0.16100
C5020       C  0.51885011  0.85778298  0.89222590     0.21900
C5021       C  0.51304529  0.83040871  0.89892179    -0.34300
C5022       C  0.50384922  0.82709548  0.91339368     0.16000
O5023       O  0.99571934  0.84325010  0.93474983    -0.26300
C5024       C  0.49646498  0.81725402  0.93632298     0.05800
C5025       C  0.50123881  0.80613800  0.92333724    -0.31200
O5026       O  0.53288016  0.86792858  0.87976505    -0.23000
C5027       C  0.53777228  0.89652259  0.87898388    -0.03000
C5028       C  0.52656967  0.90468951  0.89098099    -0.17500
H5029       H  0.00416677  0.89419103  0.91986404     0.20500
H5030       H  0.51777352  0.81396408  0.89358674     0.18900
H5031       H  0.50496409  0.78685625  0.92168458     0.18800
H5032       H  0.53013091  0.92722424  0.89378156     0.14700
C5033       C  0.55228777  0.67141145  0.88905364     0.30100
C5034       C  0.54059237  0.66142810  0.90289989    -0.36200
C5035       C  0.54466148  0.68434326  0.91285493     0.16100
C5036       C  0.55863887  0.71501135  0.90938221     0.21900
C5037       C  0.57019263  0.72500678  0.89546097    -0.34300
C5038       C  0.56653095  0.70205662  0.88551361     0.16000
O5039       O  0.55577962  0.65455282  0.87910947    -0.26300
C5040       C  0.57248139  0.67434869  0.86891589     0.05800
C5041       C  0.57939267  0.70427886  0.87227877    -0.31200
O5042       O  0.55998394  0.73247485  0.92044046    -0.23000
C5043       C  0.54705023  0.71272216  0.93118992    -0.03000
C5044       C  0.53726700  0.68247922  0.92705777    -0.17500
H5045       H  0.53053255  0.63758302  0.90593259     0.20500
H5046       H  0.58233619  0.74911651  0.89275449     0.18900
H5047       H  0.59577847  0.72515885  0.86696849     0.18800
H5048       H  0.52547093  0.66196348  0.93347724     0.14700
C5049       C  0.85000216  0.85387053  0.89063876     0.30100
C5050       C  0.85941308  0.85828536  0.90512766    -0.36200
C5051       C  0.83745114  0.83905585  0.91507326     0.16100
C5052       C  0.80858360  0.81611740  0.91099835     0.21900
C5053       C  0.79927853  0.81140967  0.89647405    -0.34300
C5054       C  0.82094907  0.83134553  0.88653452     0.16000
O5055       O  0.86416397  0.87381309  0.88036693    -0.26300
C5056       C  0.84400465  0.86460886  0.86951293     0.05800
C5057       C  0.81696938  0.83762417  0.87265809    -0.31200
O5058       O  0.79147108  0.80130825  0.92213037    -0.23000
C5059       C  0.80938206  0.81543612  0.93349491    -0.03000
C5060       C  0.83823849  0.83918647  0.92975093    -0.17500
H5061       H  0.88146091  0.87710950  0.90852783     0.20500
H5062       H  0.77606994  0.79475068  0.89327286     0.18900
H5063       H  0.79544744  0.82785417  0.86678638     0.18800
H5064       H  0.85723623  0.85384073  0.93680360     0.14700
C5065       C  0.68567686  0.65663042  0.88796348     0.30100
C5066       C  0.71203157  0.67258099  0.89663256    -0.36200
C5067       C  0.70883103  0.66449794  0.91124513     0.16100
C5068       C  0.68152733  0.64236823  0.91706239     0.21900
C5069       C  0.65564985  0.62524782  0.90823072    -0.34300
C5070       C  0.65891410  0.63318788  0.89358390     0.16000
O5071       O  0.68154631  0.66519970  0.87507441    -0.26300
C5072       C  0.65183317  0.64664852  0.87223044     0.05800
C5073       C  0.63700589  0.62577373  0.88328669    -0.31200
O5074       O  0.68182918  0.64315381  0.93134293    -0.23000
C5075       C  0.70992742  0.66573901  0.93471343    -0.03000
C5076       C  0.72774731  0.67931802  0.92258270    -0.17500
H5077       H  0.73270304  0.69205555  0.89260985     0.20500
H5078       H  0.63364369  0.60896018  0.91270092     0.18900
H5079       H  0.61253761  0.61076346  0.88453249     0.18800
H5080       H  0.75009218  0.69982687  0.92217036     0.14700
C5081       C  0.67559642  0.00479806  0.89155410     0.30100
C5082       C  0.70003859  0.00643056  0.89963867    -0.36200
C5083       C  0.70413670  0.01906854  0.91356911     0.16100
C5084       C  0.68560664  0.02960044  0.91920822     0.21900
C5085       C  0.66192983  0.02906496  0.91091990    -0.34300
C5086       C  0.65769175  0.01624033  0.89701628     0.16000
O5087       O  0.66381048  0.98824158  0.87967768    -0.26300
C5088       C  0.63816388  0.98930014  0.87737226     0.05800
C5089       C  0.63355459  0.00680110  0.88775829    -0.31200
O5090       O  0.68994071  0.53533961  0.93321149    -0.23000
C5091       C  0.71174543  0.02866998  0.93656234    -0.03000
C5092       C  0.72163812  0.01881391  0.92469712    -0.17500
H5093       H  0.71312800  0.99597351  0.89585445     0.20500
H5094       H  0.64613703  0.53560556  0.91545457     0.18900
H5095       H  0.61311544  0.00852632  0.88936710     0.18800
H5096       H  0.73707347  0.00957638  0.92460151     0.14700
C5097       C  0.82930948  0.97656698  0.91825684     0.30100
C5098       C  0.85286739  0.98290533  0.90838809    -0.36200
C5099       C  0.84370586  0.97440662  0.89395492     0.16100
C5100       C  0.81344303  0.96034215  0.88954266     0.21900
C5101       C  0.78998990  0.95448052  0.89934455    -0.34300
C5102       C  0.79914917  0.96296345  0.91371830     0.16000
O5103       O  0.83247874  0.98244749  0.93229283    -0.26300
C5104       C  0.80385543  0.97231667  0.93676113     0.05800
C5105       C  0.78231511  0.95994238  0.92562233    -0.31200
O5106       O  0.80942616  0.94932046  0.87626504    -0.23000
C5107       C  0.83746609  0.95654212  0.87192331    -0.03000
C5108       C  0.85972817  0.97282878  0.88247883    -0.17500
H5109       H  0.87655586  0.49277889  0.91179054     0.20500
H5110       H  0.76606750  0.94271734  0.89612317     0.18900
H5111       H  0.75779243  0.95105335  0.92614897     0.18800
H5112       H  0.88330506  0.97775071  0.88258129     0.14700
C5113       C  0.97859143  0.80790335  0.08539868     0.30100
C5114       C  0.98366263  0.83167161  0.09503652    -0.36200
C5115       C  0.97299108  0.82280840  0.10911546     0.16100
C5116       C  0.95806532  0.79258172  0.11342610     0.21900
C5117       C  0.95386866  0.76888517  0.10389568    -0.34300
C5118       C  0.96453349  0.77777078  0.08981137     0.16000
O5119       O  0.98540694  0.81085376  0.07156297    -0.26300
C5120       C  0.97562881  0.78219816  0.06703664     0.05800
C5121       C  0.96255947  0.76070439  0.07796063    -0.31200
O5122       O  0.94449497  0.78889751  0.12600653    -0.23000
C5123       C  0.95110013  0.81714057  0.12993712    -0.03000
C5124       C  0.96938195  0.83915345  0.11991875    -0.17500
H5125       H  0.49377103  0.85527311  0.09160155     0.20500
H5126       H  0.94139275  0.74499332  0.10697283     0.18900
H5127       H  0.95325284  0.73609788  0.07727958     0.18800
H5128       H  0.97457567  0.86281695  0.11950846     0.14700
C5129       C  0.81193230  0.82087324  0.08886091     0.30100
C5130       C  0.80691947  0.80987782  0.10308379    -0.36200
C5131       C  0.83155126  0.82532411  0.11282819     0.16100
C5132       C  0.85904260  0.85016910  0.10881048     0.21900
C5133       C  0.86396558  0.86129130  0.09462697    -0.34300
C5134       C  0.83954373  0.84556397  0.08483865     0.16000
O5135       O  0.79358506  0.80730298  0.07772891    -0.26300
C5136       C  0.80949628  0.82327864  0.06632920     0.05800
C5137       C  0.83836125  0.84749306  0.07014166    -0.31200
O5138       O  0.88054275  0.85794360  0.11871938    -0.23000
C5139       C  0.86705840  0.83798577  0.12936082    -0.03000
C5140       C  0.83630128  0.81722089  0.12627735    -0.17500
H5141       H  0.78605677  0.78928437  0.10605913     0.20500
H5142       H  0.88616860  0.87945066  0.09119861     0.18900
H5143       H  0.85667875  0.86259592  0.06306021     0.18800
H5144       H  0.82116200  0.79650254  0.13204668     0.14700
C5145       C  0.83125569  0.00629197  0.42234654     0.30100
C5146       C  0.82445398  0.99888191  0.43698356    -0.36200
C5147       C  0.81700191  0.01801228  0.44513352     0.16100
C5148       C  0.81674249  0.04300579  0.43926543     0.21900
C5149       C  0.82389029  0.05063382  0.42466844    -0.34300
C5150       C  0.83080487  0.03119185  0.41646242     0.16000
O5151       O  0.83499117  0.98928651  0.41250918    -0.26300
C5152       C  0.83686301  0.00322342  0.40006829     0.05800
C5153       C  0.83443327  0.02955401  0.40189727    -0.31200
O5154       O  0.80439651  0.05470574  0.44798068    -0.23000
C5155       C  0.79640451  0.03715833  0.45969636    -0.03000
C5156       C  0.80409194  0.01404733  0.45851553    -0.17500
H5157       H  0.82292970  0.97831676  0.44144526     0.20500
H5158       H  0.82188946  0.06908267  0.41979290     0.18900
H5159       H  0.83332381  0.04407033  0.39364035     0.18800
H5160       H  0.79716648  0.99459227  0.46551908     0.14700
C5161       C  0.80414401  0.82535809  0.41775667     0.30100
C5162       C  0.80863175  0.80388644  0.42534260    -0.36200
C5163       C  0.80209898  0.80157897  0.44008190     0.16100
C5164       C  0.79131670  0.81883126  0.44690683     0.21900
C5165       C  0.78802998  0.84131850  0.43939956    -0.34300
C5166       C  0.79485977  0.84382456  0.42461903     0.16000
O5167       O  0.80689348  0.82962131  0.40374518    -0.26300
C5168       C  0.79970201  0.85143618  0.40151354     0.05800
C5169       C  0.79226575  0.86141747  0.41413936    -0.31200
O5170       O  0.78005328  0.80803181  0.45976573    -0.23000
C5171       C  0.78403382  0.78382392  0.46128210    -0.03000
C5172       C  0.79854689  0.77946922  0.44946743    -0.17500
H5173       H  0.81501733  0.78870379  0.41994485     0.20500
H5174       H  0.77876487  0.85441703  0.44448337     0.18900
H5175       H  0.78555003  0.87873452  0.41536045     0.18800
H5176       H  0.80076720  0.75950775  0.44706514     0.14700
C5177       C  0.81987989  0.84613234  0.24794135     0.30100
C5178       C  0.82829619  0.85556419  0.23362336    -0.36200
C5179       C  0.83555494  0.83690987  0.22501106     0.16100
C5180       C  0.83406047  0.81052755  0.23016169     0.21900
C5181       C  0.82555907  0.80105800  0.24445391    -0.34300
C5182       C  0.81889099  0.82000081  0.25313312     0.16000
O5183       O  0.81569014  0.86202586  0.25816790    -0.26300
C5184       C  0.81216888  0.84615146  0.27014940     0.05800
C5185       C  0.81398953  0.81969039  0.26766460    -0.31200
O5186       O  0.84589881  0.79892595  0.22114222    -0.23000
C5187       C  0.85534923  0.81792341  0.20995885    -0.03000
C5188       C  0.84929724  0.84203871  0.21178203    -0.17500
H5189       H  0.83095730  0.87704526  0.22976654     0.20500
H5190       H  0.82621800  0.78143006  0.24877883     0.18900
H5191       H  0.81380058  0.80376618  0.27550672     0.18800
H5192       H  0.85743180  0.86239482  0.20528241     0.14700
C5193       C  0.49297362  0.78470868  0.43792252     0.30100
C5194       C  0.48217331  0.78486446  0.42392597    -0.36200
C5195       C  0.50246366  0.80863848  0.41490334     0.16100
C5196       C  0.53127818  0.83085785  0.41944357     0.21900
C5197       C  0.54198375  0.83080612  0.43345908    -0.34300
C5198       C  0.52175915  0.80695421  0.44246174     0.16000
O5199       O  0.47948414  0.76240764  0.44732074    -0.26300
C5200       C  0.49960601  0.77032185  0.45817723     0.05800
C5201       C  0.52633420  0.79810555  0.45572877    -0.31200
O5202       O  0.54672455  0.85064340  0.40923160    -0.23000
C5203       C  0.52773897  0.84104809  0.39790282    -0.03000
C5204       C  0.49976987  0.81488062  0.40080457    -0.17500
H5205       H  0.95997330  0.76693791  0.42014624     0.20500
H5206       H  0.56491575  0.84764417  0.43694060     0.18900
H5207       H  0.54749226  0.80815977  0.46189813     0.18800
H5208       H  0.48025200  0.80255207  0.39365829     0.14700
C5209       C  0.63163867  0.99638514  0.42206783     0.30100
C5210       C  0.63329742  0.98634214  0.43593516    -0.36200
C5211       C  0.65786319  0.00723874  0.44462651     0.16100
C5212       C  0.67932866  0.03604920  0.43995812     0.21900
C5213       C  0.67727902  0.04634066  0.42620952    -0.34300
C5214       C  0.65274962  0.02544167  0.41751498     0.16000
O5215       O  0.61338230  0.97908711  0.41155998    -0.26300
C5216       C  0.62267017  0.99730350  0.40013771     0.05800
C5217       C  0.64697111  0.02653680  0.40324251    -0.31200
O5218       O  0.70309224  0.04975206  0.44875840    -0.23000
C5219       C  0.69670977  0.02979357  0.45936529    -0.03000
C5220       C  0.66871116  0.00293936  0.45735951    -0.17500
H5221       H  0.61783220  0.96307007  0.43932317     0.20500
H5222       H  0.69488732  0.56824664  0.42218845     0.18900
H5223       H  0.66037702  0.04478786  0.39578340     0.18800
H5224       H  0.65967270  0.98189214  0.46340960     0.14700
C5225       C  0.99833196  0.82235419  0.25057515     0.30100
C5226       C  0.97278451  0.79978134  0.24293970    -0.36200
C5227       C  0.96877666  0.80731021  0.22887947     0.16100
C5228       C  0.98875232  0.83504220  0.22264976     0.21900
C5229       C  0.01481588  0.85723039  0.23013155    -0.34300
C5230       C  0.51858385  0.84987786  0.24425757     0.16000
O5231       O  0.50312892  0.82240965  0.26456634    -0.26300
C5232       C  0.52675603  0.85029945  0.26726366     0.05800
C5233       C  0.53750883  0.86820492  0.25497532    -0.31200
O5234       O  0.97764390  0.83971929  0.21063020    -0.23000
C5235       C  0.95027856  0.81463188  0.20904507    -0.03000
C5236       C  0.94375965  0.79359324  0.22004272    -0.17500
H5237       H  0.95567275  0.77900175  0.24806293     0.20500
H5238       H  0.02951218  0.87980269  0.22574691     0.18900
H5239       H  0.55449462  0.89233999  0.25433051     0.18800
H5240       H  0.92205185  0.77319085  0.22221120     0.14700
C5241       C  0.02271328  0.65326303  0.07815136     0.30100
C5242       C  0.01690017  0.62700566  0.08593888    -0.36200
C5243       C  0.00809823  0.62611121  0.10039641     0.16100
C5244       C  0.00525815  0.64944418  0.10683633     0.21900
C5245       C  0.01218896  0.67616995  0.09921468    -0.34300
C5246       C  0.02075358  0.67697017  0.08474764     0.16000
O5247       O  0.52609084  0.65660640  0.06400033    -0.26300
C5248       C  0.02641804  0.68290072  0.06150540     0.05800
C5249       C  0.02353568  0.69660488  0.07408686    -0.31200
O5250       O  0.99117117  0.64143781  0.11941544    -0.23000
C5251       C  0.98508878  0.61262500  0.12120679    -0.03000
C5252       C  0.99567781  0.60225658  0.10974826    -0.17500
H5253       H  0.51669059  0.60749661  0.08076352     0.20500
H5254       H  0.00852874  0.69394171  0.10385082     0.18900
H5255       H  0.02077131  0.71661331  0.07505069     0.18800
H5256       H  0.99134114  0.57913612  0.10777214     0.14700
C5257       C  0.86555514  0.49296730  0.10644470     0.30100
C5258       C  0.86176400  0.47969739  0.09269893    -0.36200
C5259       C  0.83624306  0.47569112  0.08475510     0.16100
C5260       C  0.81571075  0.48403107  0.09002662     0.21900
C5261       C  0.81887481  0.49623952  0.10398837    -0.34300
C5262       C  0.84453714  0.50044331  0.11190557     0.16000
O5263       O  0.89084461  0.50449921  0.11427409    -0.26300
C5264       C  0.88594818  0.51916417  0.12505368     0.05800
C5265       C  0.85731843  0.51713387  0.12418126    -0.31200
O5266       O  0.79717406  0.48394917  0.07992838    -0.23000
C5267       C  0.80572717  0.47522584  0.06806215    -0.03000
C5268       C  0.82964278  0.46931210  0.07048289    -0.17500
H5269       H  0.87910445  0.47556790  0.08799533     0.20500
H5270       H  0.80403459  0.50460359  0.10787654     0.18900
H5271       H  0.84911046  0.52983221  0.13045972     0.18800
H5272       H  0.84275707  0.46483231  0.06256206     0.14700
C5273       C  0.87365707  0.51223350  0.22094924     0.30100
C5274       C  0.87211758  0.49023392  0.23071392    -0.36200
C5275       C  0.86479428  0.49341343  0.24500943     0.16100
C5276       C  0.85952092  0.51669522  0.24943990     0.21900
C5277       C  0.85992018  0.53790806  0.23959106    -0.34300
C5278       C  0.86681855  0.53449392  0.22528866     0.16000
O5279       O  0.88570657  0.51729724  0.20790246    -0.26300
C5280       C  0.88605278  0.54282362  0.20370214     0.05800
C5281       C  0.87364535  0.55382180  0.21402539    -0.31200
O5282       O  0.85488292  0.51649127  0.26345510    -0.23000
C5283       C  0.85691226  0.99254396  0.26808704    -0.03000
C5284       C  0.86281468  0.97721177  0.25704840    -0.17500
H5285       H  0.87795545  0.47294882  0.22759060     0.20500
H5286       H  0.85649265  0.55667664  0.24296875     0.18900
H5287       H  0.87458908  0.57585869  0.21416995     0.18800
H5288       H  0.86523797  0.95700205  0.25781530     0.14700
C5289       C  0.66231912  0.67291365  0.10885087     0.30100
C5290       C  0.65209602  0.66505223  0.09455748    -0.36200
C5291       C  0.67470251  0.67789044  0.08398679     0.16100
C5292       C  0.70502814  0.69831266  0.08723425     0.21900
C5293       C  0.71507044  0.70715580  0.10144888    -0.34300
C5294       C  0.69270680  0.69338926  0.11208843     0.16000
O5295       O  0.64745883  0.65622166  0.11998114    -0.26300
C5296       C  0.66850057  0.66525853  0.13040386     0.05800
C5297       C  0.69671221  0.68953749  0.12625966    -0.31200
O5298       O  0.72268349  0.70591045  0.07584508    -0.23000
C5299       C  0.70355530  0.68980374  0.06518668    -0.03000
C5300       C  0.67333139  0.67189617  0.06957758    -0.17500
H5301       H  0.62885771  0.64739017  0.09197815     0.20500
H5302       H  0.73917705  0.72139248  0.10409327     0.18900
H5303       H  0.71855802  0.69745589  0.13165261     0.18800
H5304       H  0.65335141  0.65700706  0.06309816     0.14700
C5305       C  0.68439801  0.54275182  0.08465678     0.30100
C5306       C  0.66051844  0.54174358  0.09299447    -0.36200
C5307       C  0.66772817  0.55160407  0.10745872     0.16100
C5308       C  0.69655563  0.56222932  0.11330787     0.21900
C5309       C  0.72033935  0.56298948  0.10501467    -0.34300
C5310       C  0.71307418  0.55290064  0.09060642     0.16000
O5311       O  0.68280977  0.53455946  0.07091086    -0.26300
C5312       C  0.71091450  0.53947978  0.06800020     0.05800
C5313       C  0.73060213  0.55096620  0.07990087    -0.31200
O5314       O  0.69945171  0.57443703  0.12632698    -0.23000
C5315       C  0.67198247  0.57132290  0.12907183    -0.03000
C5316       C  0.65130855  0.55680083  0.11767878    -0.17500
H5317       H  0.63805123  0.53446168  0.08843557     0.20500
H5318       H  0.74325929  0.57183536  0.10935306     0.18900
H5319       H  0.75431736  0.55646406  0.08063883     0.18800
H5320       H  0.62887241  0.55457106  0.11629658     0.14700
C5321       C  0.65130071  0.53182387  0.25325505     0.30100
C5322       C  0.67743391  0.55184505  0.24542540    -0.36200
C5323       C  0.67273598  0.55493724  0.23077925     0.16100
C5324       C  0.64420694  0.53967981  0.22426688     0.21900
C5325       C  0.61811906  0.51905391  0.23203370    -0.34300
C5326       C  0.62286079  0.51590595  0.24669438     0.16000
O5327       O  0.65047097  0.02583035  0.26711370    -0.26300
C5328       C  0.62109546  0.00568123  0.26950774     0.05800
C5329       C  0.60285103  0.49868758  0.25716791    -0.31200
O5330       O  0.64416200  0.55030241  0.21130446    -0.23000
C5331       C  0.67306995  0.57249193  0.20939275    -0.03000
C5332       C  0.69192563  0.57574772  0.22109638    -0.17500
H5333       H  0.69972085  0.56502821  0.25052976     0.20500
H5334       H  0.59546916  0.50747359  0.22717409     0.18900
H5335       H  0.57855754  0.48253515  0.25600459     0.18800
H5336       H  0.71507611  0.59425026  0.22313095     0.14700
C5337       C  0.48092541  0.62781794  0.41589052     0.30100
C5338       C  0.46174312  0.63323891  0.42493547    -0.36200
C5339       C  0.47203588  0.64213751  0.43917784     0.16100
C5340       C  0.49950994  0.64572174  0.44422804     0.21900
C5341       C  0.51789043  0.63864368  0.43539272    -0.34300
C5342       C  0.50751199  0.62961365  0.42114946     0.16000
O5343       O  0.47909367  0.62589979  0.40166832    -0.26300
C5344       C  0.50450524  0.62578381  0.39774168     0.05800
C5345       C  0.52270801  0.62749238  0.40947481    -0.31200
O5346       O  0.50834642  0.66150556  0.45649027    -0.23000
C5347       C  0.48604796  0.66773776  0.45948176    -0.03000
C5348       C  0.46257142  0.65547147  0.44919120    -0.17500
H5349       H  0.94181320  0.63366754  0.42076849     0.20500
H5350       H  0.54030424  0.64303227  0.43889443     0.18900
H5351       H  0.54583826  0.63110817  0.40928822     0.18800
H5352       H  0.94394703  0.66033066  0.44802321     0.14700
C5353       C  0.66306078  0.67759801  0.44219634     0.30100
C5354       C  0.64379928  0.68223394  0.43287923    -0.36200
C5355       C  0.64805734  0.67965391  0.41814874     0.16100
C5356       C  0.66951057  0.67265085  0.41283343     0.21900
C5357       C  0.68780648  0.66660096  0.42217447    -0.34300
C5358       C  0.68359025  0.66921060  0.43696559     0.16000
O5359       O  0.66851340  0.68672715  0.45576842    -0.26300
C5360       C  0.69273697  0.68410625  0.45940341     0.05800
C5361       C  0.70208310  0.67189892  0.44823354    -0.31200
O5362       O  0.67069670  0.67320991  0.39860914    -0.23000
C5363       C  0.64957958  0.68055471  0.39485481    -0.03000
C5364       C  0.63476149  0.68467919  0.40656732    -0.17500
H5365       H  0.62836241  0.68984878  0.43678249     0.20500
H5366       H  0.70549416  0.66216853  0.41819448     0.18900
H5367       H  0.72361440  0.67190632  0.44755381     0.18800
H5368       H  0.61641057  0.69010221  0.40650032     0.14700
C5369       C  0.98461628  0.65986322  0.22051812     0.30100
C5370       C  0.47667325  0.66854723  0.23357749    -0.36200
C5371       C  0.49007373  0.66477020  0.24612516     0.16100
C5372       C  0.01064703  0.65416101  0.24569533     0.21900
C5373       C  0.01905105  0.64610086  0.23267749    -0.34300
C5374       C  0.00519069  0.64924893  0.22018820     0.16000
O5375       O  0.96923779  0.65432906  0.20831244    -0.26300
C5376       C  0.97951684  0.63951802  0.20002857     0.05800
C5377       C  0.00292590  0.63693824  0.20678438    -0.31200
O5378       O  0.02038499  0.65219340  0.25857057    -0.23000
C5379       C  0.50554262  0.66107690  0.26751478    -0.03000
C5380       C  0.48621376  0.66919845  0.26039630    -0.17500
H5381       H  0.45944777  0.67549424  0.23401919     0.20500
H5382       H  0.03400603  0.63632136  0.23240731     0.18900
H5383       H  0.01167809  0.62193107  0.20361538     0.18800
H5384       H  0.47268178  0.67847378  0.26496871     0.14700
C5385       C  0.66872149  0.69638180  0.22225794     0.30100
C5386       C  0.64788531  0.70330048  0.22908108    -0.36200
C5387       C  0.65476071  0.71377503  0.24343189     0.16100
C5388       C  0.68043451  0.71722445  0.25057902     0.21900
C5389       C  0.70178837  0.71137468  0.24360757    -0.34300
C5390       C  0.69487108  0.70083668  0.22930450     0.16000
O5391       O  0.66370758  0.68071125  0.21007213    -0.26300
C5392       C  0.68706888  0.67527270  0.20921363     0.05800
C5393       C  0.70733650  0.68770053  0.22083338    -0.31200
O5394       O  0.67947160  0.72144640  0.26457223    -0.23000
C5395       C  0.65308099  0.72119028  0.26647391    -0.03000
C5396       C  0.63694464  0.71688970  0.25362934    -0.17500
H5397       H  0.62641723  0.69821034  0.22400652     0.20500
H5398       H  0.72100012  0.71225761  0.24934795     0.18900
H5399       H  0.72616846  0.68392928  0.22357072     0.18800
H5400       H  0.61369854  0.71256666  0.25229117     0.14700
loop_ 
_geom_bond_atom_site_label_1 
_geom_bond_atom_site_label_2 
_geom_bond_distance 
_geom_bond_site_symmetry_2 
_ccdc_geom_bond_type 
O1           Mg3   2.170       .  S
O1           Mg9   2.152       .  S
O1           C36   1.238       .  S
C2           O15   1.233       .  S
C2           O39   1.267       .  A
C2           H41   1.081       .  S
Mg3          O32   2.162       .  S
Mg3          O47   2.343       .  S
Mg3          O43   2.297   1_455  S
Mg3          O14   2.306       .  S
O4          Mg46   2.160       .  S
O4          Mg29   2.139       .  S
O4           C25   1.238       .  S
O5           C36   1.274       .  A
O5          Mg29   2.319       .  S
C6            O8   1.278   1_455  A
C6           O20   1.265       .  A
C6         C1329   1.469       .  S
O7           C35   1.270       .  A
O7           Mg9   2.292       .  S
O8          Mg40   2.340   1_655  S
Mg9          O15   2.140       .  S
Mg9          O23   2.229       .  S
Mg9          O11   2.249       .  S
C10          O48   1.270       .  A
C10          O16   1.272       .  A
C10        C1345   1.475       .  S
O11          C18   1.266       .  A
H12          C25   1.081       .  S
C13          O27   1.238       .  S
C13          O28   1.274       .  A
C13          H38   1.082       .  S
O14          C37   1.269       .  A
O15         Mg29   2.149       .  S
O16         Mg46   2.304       .  S
C17          O30   1.273       .  A
C17          O22   1.279       .  A
C17         C688   1.469       .  S
C18          O45   1.273       .  A
C18        C1313   1.466       .  S
Mg19         O26   2.168       .  S
Mg19         O27   2.143       .  S
Mg19         O20   2.237       .  S
Mg19         O21   2.301       .  S
Mg19         O48   2.271       .  S
O21          C25   1.272       .  A
O22         Mg29   2.326       .  S
O23          C42   1.266       .  A
O24          C44   1.286       .  A
O24       Mg2740   2.369       .  S
O26         Mg40   2.167       .  S
O26          C37   1.234       .  S
O27         Mg46   2.167       .  S
O28         Mg40   2.320       .  S
Mg29         O45   2.305       .  S
O30         Mg46   2.287       .  S
H31          C36   1.082       .  S
O32         Mg40   2.151       .  S
O32          C35   1.237       .  S
H33          C35   1.081   1_655  S
H34          C37   1.081       .  S
O39         Mg46   2.294       .  S
Mg40       O2724   2.369   1_455  S
C42          O47   1.277       .  A
C42        C1294   1.477       .  S
O43        C2744   1.276       .  A
C44        O2743   1.276       .  A
C44         C720   1.482       .  S
C49        C1342   1.486       .  S
C49          C50   1.395       .  A
C49          C54   1.415       .  A
C50          H69   1.085       .  S
C50          C51   1.398       .  A
C51        C1281   1.480       .  S
C51          C52   1.416       .  A
C52          C53   1.421       .  A
C52          C59   1.408       .  A
C53          C54   1.427       .  A
C53          C58   1.421       .  A
C54          C55   1.404       .  A
C55          H65   1.082       .  S
C55          C56   1.394       .  A
C56          H66   1.083       .  S
C56          C57   1.405       .  A
C57          C58   1.421       .  A
C57          C64   1.407       .  A
C58          C61   1.429       .  A
C59          H67   1.083       .  S
C59          C60   1.402       .  A
C60          H68   1.083       .  S
C60          C61   1.404       .  A
C61          C62   1.422       .  A
C62        C1265   1.492       .  S
C62          C63   1.392       .  A
C63          H70   1.086       .  S
C63          C64   1.394       .  A
C64        C1246   1.471       .  S
C71        C1230   1.487       .  S
C71          C72   1.390       .  A
C71          C76   1.415       .  A
C72          H91   1.087       .  S
C72          C73   1.391       .  A
C73        C1326   1.477       .  S
C73          C74   1.415       .  A
C74          C75   1.424       .  A
C74          C81   1.405       .  A
C75          C76   1.429       .  A
C75          C80   1.424       .  A
C76          C77   1.402       .  A
C77          H87   1.083       .  S
C77          C78   1.395       .  A
C78          H88   1.082       .  S
C78          C79   1.407       .  A
C79          C80   1.422       .  A
C79          C86   1.413       .  A
C80          C83   1.428       .  A
C81          H89   1.083       .  S
C81          C82   1.401       .  A
C82          H90   1.082       .  S
C82          C83   1.408       .  A
C83          C84   1.424       .  A
C84        C1201   1.495       .  S
C84          C85   1.400       .  A
C85          H92   1.085       .  S
C85          C86   1.396       .  A
C86        C1214   1.481       .  S
O93         Mg95   2.161       .  S
O93        Mg101   2.153       .  S
O93         C128   1.238       .  S
C94         O107   1.233       .  S
C94         O131   1.267       .  A
C94         H133   1.081       .  S
Mg95        O124   2.174       .  S
Mg95        O139   2.362       .  S
Mg95        O106   2.294   1_455  S
Mg95       O2835   2.281   1_455  S
O96        Mg138   2.177       .  S
O96        Mg121   2.156       .  S
O96         C117   1.238       .  S
O97         C128   1.273       .  A
O97        Mg121   2.312       .  S
C98         O100   1.273       .  A
C98         O112   1.273       .  A
C98        C1182   1.473       .  S
O99         C127   1.269       .  A
O99        Mg101   2.292       .  S
O100       Mg132   2.283       .  S
Mg101       O107   2.149       .  S
Mg101       O115   2.252       .  S
Mg101       O103   2.289       .  S
C102        O140   1.270       .  A
C102        O108   1.279       .  A
C102       C1278   1.475       .  S
O103        C110   1.272       .  A
H104        C117   1.081       .  S
C105        O119   1.236       .  S
C105        O120   1.271       .  A
C105        H130   1.081       .  S
O106        C129   1.268   1_655  A
O107       Mg121   2.153       .  S
O108       Mg138   2.336       .  S
C109        O122   1.277       .  A
C109        O114   1.277       .  A
C109        C695   1.477       .  S
C110        O137   1.273       .  A
C110       C1166   1.471       .  S
Mg111       O118   2.147       .  S
Mg111       O119   2.153       .  S
Mg111       O112   2.293       .  S
Mg111       O113   2.297       .  S
Mg111       O140   2.250       .  S
O113        C117   1.271       .  A
O114      Mg1471   2.334   1_545  S
O115        C134   1.270       .  A
O116        C136   1.275       .  A
O116      Mg2832   2.313       .  S
O118       Mg132   2.160       .  S
O118        C129   1.235       .  S
O119       Mg138   2.153       .  S
O120       Mg132   2.302       .  S
Mg121       O137   2.280       .  S
Mg121      O1464   2.334       .  S
O122      Mg1488   2.289   1_545  S
H123        C128   1.081       .  S
O124       Mg132   2.153       .  S
O124        C127   1.236       .  S
H125        C127   1.081       .  S
H126        C129   1.081   1_655  S
O131       Mg138   2.289       .  S
Mg132      O2816   2.313   1_455  S
C134        O139   1.282       .  A
C134       C1153   1.482       .  S
O135        C136   1.277       .  A
O135      Mg2795   2.281       .  S
C136        C722   1.469       .  S
Mg138      O1472   2.289       .  S
O141       Mg143   2.157       .  S
O141       Mg149   2.151       .  S
O141        C176   1.237       .  S
C142        O155   1.234       .  S
C142        O179   1.269       .  A
C142        H181   1.081       .  S
Mg143       O172   2.168       .  S
Mg143       O187   2.364       .  S
Mg143       O183   2.273       .  S
Mg143       O154   2.307       .  S
O144       Mg186   2.172       .  S
O144       Mg169   2.175       .  S
O144        C165   1.236       .  S
O145        C176   1.272       .  A
O145       Mg169   2.307       .  S
C146        O148   1.271       .  A
C146        O160   1.274       .  A
C146       C1118   1.473       .  S
O147        C175   1.270       .  A
O147       Mg149   2.298       .  S
O148       Mg180   2.269       .  S
Mg149       O155   2.147       .  S
Mg149       O163   2.230       .  S
Mg149       O151   2.275       .  S
C150        O188   1.271       .  A
C150        O156   1.283       .  A
C150       C1102   1.487       .  S
O151        C158   1.269       .  A
H152        C165   1.081       .  S
C153        O167   1.237       .  S
C153        O168   1.274       .  A
C153        H178   1.082       .  S
O154        C177   1.270       .  A
O155       Mg169   2.153       .  S
O156       Mg186   2.373       .  S
C157        O162   1.275       .  A
C157       O1520   1.279       .  A
C157        C696   1.471       .  S
C158        O185   1.275       .  A
C158       C1233   1.476       .  S
Mg159       O166   2.171       .  S
Mg159       O167   2.154       .  S
Mg159       O160   2.319       .  S
Mg159       O161   2.304       .  S
Mg159       O188   2.260       .  S
O161        C165   1.271       .  A
O162      Mg1519   2.317   1_545  S
O163        C182   1.266       .  A
O164        C184   1.277       .  A
O164       Mg180   2.338       .  S
O166       Mg180   2.149       .  S
O166        C177   1.234       .  S
O167       Mg186   2.178       .  S
O168       Mg180   2.318       .  S
Mg169       O185   2.313       .  S
Mg169      O1512   2.317       .  S
O170       C1507   1.279       .  A
O170       Mg186   2.298       .  S
H171        C176   1.082       .  S
O172       Mg180   2.162       .  S
O172        C175   1.236       .  S
H173        C175   1.081       .  S
H174        C177   1.081       .  S
O179       Mg186   2.298       .  S
C182        O187   1.280       .  A
C182       C1134   1.480       .  S
O183        C184   1.275       .  A
C184        C684   1.472       .  S
C189       C1185   1.482       .  S
C189        C190   1.393       .  A
C189        C194   1.411       .  A
C190        H209   1.086       .  S
C190        C191   1.398       .  A
C191       C1137   1.491       .  S
C191        C192   1.427       .  A
C192        C193   1.428       .  A
C192        C199   1.408       .  A
C193        C194   1.425       .  A
C193        C198   1.425       .  A
C194        C195   1.405       .  A
C195        H205   1.083       .  S
C195        C196   1.393       .  A
C196        H206   1.083       .  S
C196        C197   1.403       .  A
C197        C198   1.426       .  A
C197        C204   1.411       .  A
C198        C201   1.428       .  A
C199        H207   1.081       .  S
C199        C200   1.405       .  A
C200        H208   1.082       .  S
C200        C201   1.406       .  A
C201        C202   1.425       .  A
C202       C1089   1.490       .  S
C202        C203   1.394       .  A
C203        H210   1.087       .  S
C203        C204   1.391       .  A
C204       C1073   1.480       .  S
O211       Mg213   2.164       .  S
O211      Mg1569   2.161   1_545  S
O211        C246   1.239       .  S
C212        O225   1.234       .  S
C212        O249   1.268   1_556  A
C212        H251   1.081       .  S
Mg213      O1592   2.172   1_545  S
Mg213       O253   2.290       .  S
Mg213       O224   2.298   1_556  S
Mg213      O1607   2.362   1_545  S
O214       Mg239   2.160   1_554  S
O214      Mg1606   2.173   1_545  S
O214        C235   1.237       .  S
O215        C246   1.274       .  A
O215       Mg239   2.311       .  S
C216        O230   1.274       .  A
C216       O1568   1.273       .  A
C216       C1217   1.470       .  S
O217        C245   1.268       .  A
O217       Mg219   2.284       .  S
O218       C1566   1.273       .  A
O218       Mg250   2.269       .  S
Mg219       O225   2.130       .  S
Mg219      O1561   2.161       .  S
Mg219       O233   2.209       .  S
Mg219       O221   2.270       .  S
C220        O258   1.273       .  A
C220        O226   1.283       .  A
C220       C1262   1.490       .  S
O221        C228   1.269       .  A
H222        C235   1.081       .  S
C223        O237   1.239       .  S
C223        O238   1.274       .  A
C223        H248   1.081       .  S
O224        C247   1.268       .  A
O225      Mg1589   2.143       .  S
O226      Mg1606   2.376   1_545  S
C227        O240   1.280       .  A
C227        O232   1.274   1_554  A
C227       C1990   1.468   1_554  S
C228        O255   1.273       .  A
C228       C1041   1.477       .  S
Mg229       O236   2.162       .  S
Mg229      O1587   2.151   1_545  S
Mg229       O230   2.301   1_545  S
Mg229       O231   2.296       .  S
Mg229       O258   2.270       .  S
O231        C235   1.271       .  A
O232      Mg1589   2.305       .  S
O233        C252   1.265       .  A
O234        C254   1.280       .  A
O234      Mg1600   2.350       .  S
O236      Mg1600   2.155   1_545  S
O236        C247   1.233       .  S
O237       Mg256   2.166       .  S
O237      Mg1579   2.151       .  S
O238       Mg250   2.312       .  S
Mg239      O1575   2.143   1_545  S
Mg239      O1582   2.305       .  S
Mg239      O1605   2.301       .  S
O240       Mg256   2.300       .  S
H241        C246   1.081       .  S
O242       Mg250   2.144   1_556  S
O242      Mg1563   2.172       .  S
O242        C245   1.235       .  S
H243        C245   1.081       .  S
H244        C247   1.081       .  S
O249       Mg256   2.294       .  S
Mg250      O1586   2.155       .  S
Mg250      O1584   2.350       .  S
C252        O257   1.280       .  A
C252       C1054   1.478       .  S
O253        C254   1.278   1_546  A
C254       C2022   1.478       .  S
O255      Mg1589   2.301       .  S
Mg256      O1564   2.173       .  S
Mg256      O1576   2.376       .  S
O257      Mg1563   2.362       .  S
O259       Mg261   2.151       .  S
O259       Mg267   2.134       .  S
O259        C294   1.238       .  S
C260        O273   1.233       .  S
C260        O297   1.268   1_554  A
C260        H299   1.081       .  S
Mg261       O290   2.187       .  S
Mg261       O305   2.377       .  S
Mg261       O301   2.282       .  S
Mg261       O272   2.288   1_554  S
O262       Mg304   2.184       .  S
O262       Mg287   2.153   1_556  S
O262        C283   1.237       .  S
O263        C294   1.275       .  A
O263       Mg287   2.330       .  S
C264        O266   1.274       .  A
C264        O278   1.271       .  A
C264       C1009   1.471       .  S
O265        C293   1.272       .  A
O265       Mg267   2.298       .  S
O266       Mg298   2.296       .  S
Mg267       O273   2.162       .  S
Mg267       O281   2.233       .  S
Mg267       O269   2.259       .  S
C268        O306   1.268       .  A
C268        O274   1.281       .  A
C268       C1025   1.482       .  S
O269        C276   1.261       .  A
H270        C283   1.081       .  S
C271        O285   1.238       .  S
C271        O286   1.272       .  A
C271        H296   1.082       .  S
O272        C295   1.265       .  A
O273       Mg287   2.143       .  S
O274       Mg304   2.367       .  S
C275        O288   1.279   1_554  A
C275        O280   1.274       .  A
C275        C647   1.472       .  S
C276        O303   1.268       .  A
C276       C1249   1.461       .  S
Mg277       O284   2.142       .  S
Mg277       O285   2.149       .  S
Mg277       O278   2.290       .  S
Mg277       O279   2.294       .  S
Mg277       O306   2.226       .  S
O279        C283   1.270       .  A
O280       Mg287   2.306       .  S
O281        C300   1.266       .  A
O282        C302   1.276       .  A
O282       Mg298   2.312       .  S
O284       Mg298   2.148       .  S
O284        C295   1.231       .  S
O285       Mg304   2.163       .  S
O286       Mg298   2.308       .  S
Mg287       O303   2.292       .  S
O288       Mg304   2.296       .  S
H289        C294   1.081       .  S
O290       Mg298   2.166   1_554  S
O290        C293   1.238       .  S
H291        C293   1.081       .  S
H292        C295   1.081       .  S
O297       Mg304   2.302       .  S
C300        O305   1.282       .  A
C300       C1086   1.485       .  S
O301        C302   1.278   1_554  A
C302        C674   1.468       .  S
O307       Mg309   2.173       .  S
O307      Mg3015   2.160   1_455  S
O307        C342   1.238       .  S
C308        O321   1.234       .  S
C308        O345   1.269   1_554  A
C308        H347   1.081       .  S
Mg309      O3038   2.180   1_455  S
Mg309       O349   2.298       .  S
Mg309       O320   2.302       .  S
Mg309      O3053   2.323   1_455  S
O310       Mg335   2.160   1_556  S
O310      Mg3052   2.173       .  S
O310        C331   1.237       .  S
O311        C342   1.274       .  A
O311       Mg335   2.318       .  S
C312        O314   1.279       .  A
C312        O326   1.274   1_655  A
C312        C974   1.483       .  S
O313        C341   1.271       .  A
O313       Mg315   2.298       .  S
O314      Mg3046   2.325       .  S
Mg315       O321   2.143       .  S
Mg315      O3007   2.160       .  S
Mg315       O329   2.244       .  S
Mg315       O317   2.286       .  S
C316        O354   1.272       .  A
C316        O322   1.276       .  A
C316        C993   1.481       .  S
O317        C324   1.272       .  A
H318        C331   1.081       .  S
C319        O333   1.237       .  S
C319        O334   1.273       .  A
C319        H344   1.081       .  S
O320        C343   1.269   1_554  A
O321      Mg3035   2.146       .  S
O322      Mg3052   2.314       .  S
C323        O336   1.273       .  A
C323        O328   1.281   1_556  A
C323       C3348   1.468       .  S
C324       O3051   1.277       .  A
C324       C1198   1.485       .  S
Mg325       O332   2.170       .  S
Mg325      O3033   2.157   1_455  S
Mg325       O326   2.294       .  S
Mg325       O327   2.299       .  S
Mg325       O354   2.290       .  S
O327        C331   1.271       .  A
O328      Mg3035   2.332       .  S
O329        C348   1.268       .  A
O330        C350   1.285   1_556  A
O330      Mg3046   2.362   1_455  S
O332      Mg3046   2.162   1_455  S
O332        C343   1.233       .  S
O333       Mg352   2.162       .  S
O333      Mg3025   2.157       .  S
O334       Mg346   2.313       .  S
Mg335      O3021   2.146   1_455  S
Mg335       O351   2.331       .  S
Mg335      O3028   2.332       .  S
O336       Mg352   2.284       .  S
H337        C342   1.081       .  S
O338       Mg346   2.166   1_554  S
O338      Mg3009   2.180       .  S
O338        C341   1.237       .  S
H339        C341   1.081       .  S
H340        C343   1.081       .  S
O345       Mg352   2.299       .  S
Mg346      O3032   2.162       .  S
Mg346      O3014   2.325       .  S
Mg346      O3030   2.362       .  S
C348        O353   1.275       .  A
C348       C1070   1.474       .  S
O349        C350   1.274       .  A
C350       C3336   1.483       .  S
O351       C3024   1.277       .  A
Mg352      O3010   2.173       .  S
Mg352      O3022   2.314       .  S
O353      Mg3009   2.323       .  S
O355       Mg357   2.168       .  S
O355       Mg363   2.150       .  S
O355        C390   1.237       .  S
C356        O369   1.233       .  S
C356        O393   1.267       .  A
C356        H395   1.081       .  S
Mg357       O386   2.184       .  S
Mg357       O401   2.356   1_545  S
Mg357       O397   2.289   1_545  S
Mg357       O368   2.294       .  S
O358       Mg400   2.178       .  S
O358       Mg383   2.144       .  S
O358        C379   1.238       .  S
O359        C390   1.274       .  A
O359       Mg383   2.319       .  S
C360        O374   1.266       .  A
C360       O1712   1.279   1_545  A
C360        C910   1.475       .  S
O361        C389   1.270       .  A
O361       Mg363   2.290       .  S
O362       C1710   1.279       .  A
O362      Mg1744   2.344       .  S
Mg363       O369   2.142       .  S
Mg363       O377   2.211       .  S
Mg363       O365   2.266       .  S
C364        O402   1.266       .  A
C364        O370   1.277       .  A
C364        C926   1.470       .  S
O365        C372   1.266       .  A
H366        C379   1.081       .  S
C367        O381   1.238       .  S
C367        O382   1.273       .  A
C367        H392   1.082       .  S
O368        C391   1.267       .  A
O369       Mg383   2.148       .  S
O370       Mg400   2.332       .  S
C371        O384   1.275       .  A
C371        O376   1.278       .  A
C371        C732   1.472       .  S
C372        O399   1.274       .  A
C372        C958   1.471       .  S
Mg373       O380   2.144       .  S
Mg373       O381   2.145       .  S
Mg373       O374   2.249       .  S
Mg373       O375   2.297       .  S
Mg373       O402   2.235       .  S
O375        C379   1.271       .  A
O376       Mg383   2.316       .  S
O377        C396   1.264       .  A
O378        C398   1.283       .  A
O378      Mg1744   2.334       .  S
O380       Mg394   2.162       .  S
O380        C391   1.232       .  S
O381       Mg400   2.167       .  S
O382       Mg394   2.314       .  S
Mg383       O399   2.313       .  S
O384       Mg400   2.297       .  S
H385        C390   1.082       .  S
O386       Mg394   2.152       .  S
O386        C389   1.237       .  S
H387        C389   1.081   1_565  S
H388        C391   1.081       .  S
O393       Mg400   2.294       .  S
Mg394      O1712   2.344   1_545  S
Mg394      O1728   2.334   1_545  S
C396        O401   1.278   1_545  A
C396        C945   1.478       .  S
O397       C1748   1.276       .  A
C398       O1747   1.276       .  A
C398        C744   1.471       .  S
C403       C1022   1.492       .  S
C403        C404   1.395       .  A
C403        C408   1.420       .  A
C404        H423   1.086       .  S
C404        C405   1.393       .  A
C405        C990   1.482       .  S
C405        C406   1.417       .  A
C406        C407   1.425       .  A
C406        C413   1.406       .  A
C407        C408   1.429       .  A
C407        C412   1.425       .  A
C408        C409   1.405       .  A
C409        H419   1.082       .  S
C409        C410   1.398       .  A
C410        H420   1.082       .  S
C410        C411   1.407       .  A
C411        C412   1.424       .  A
C411        C418   1.415       .  A
C412        C415   1.429       .  A
C413        H421   1.083       .  S
C413        C414   1.401       .  A
C414        H422   1.083       .  S
C414        C415   1.406       .  A
C415        C416   1.423       .  A
C416        C894   1.497       .  S
C416        C417   1.397       .  A
C417        H424   1.085       .  S
C417        C418   1.394       .  A
C418        C929   1.481       .  S
C425       C1038   1.486       .  S
C425        C426   1.398       .  A
C425        C430   1.418       .  A
C426        H445   1.085       .  S
C426        C427   1.399       .  A
C427        C977   1.491       .  S
C427        C428   1.420       .  A
C428        C429   1.426       .  A
C428        C435   1.408       .  A
C429        C430   1.425       .  A
C429        C434   1.425       .  A
C430        C431   1.408       .  A
C431        H441   1.083       .  S
C431        C432   1.399       .  A
C432        H442   1.083       .  S
C432        C433   1.404       .  A
C433        C434   1.428       .  A
C433        C440   1.416       .  A
C434        C437   1.429       .  A
C435        H443   1.083       .  S
C435        C436   1.400       .  A
C436        H444   1.083       .  S
C436        C437   1.404       .  A
C437        C438   1.418       .  A
C438        C878   1.486       .  S
C438        C439   1.390       .  A
C439        H446   1.087       .  S
C439        C440   1.388       .  A
C440        C913   1.480       .  S
O447       Mg449   2.165       .  S
O447       Mg455   2.147       .  S
O447        C482   1.237       .  S
C448        O461   1.235       .  S
C448        O485   1.269   1_545  A
C448        H487   1.081   1_545  S
Mg449       O478   2.186       .  S
Mg449       O493   2.329       .  S
Mg449       O460   2.296       .  S
Mg449      O3189   2.285       .  S
O450       Mg492   2.175       .  S
O450       Mg475   2.158       .  S
O450        C471   1.238       .  S
O451        C482   1.273       .  A
O451       Mg475   2.315       .  S
C452        O466   1.276       .  A
C452       O3154   1.277       .  A
C452        C897   1.486       .  S
O453        C481   1.272       .  A
O453       Mg455   2.301       .  S
O454       C3152   1.277   1_455  A
O454      Mg3186   2.320   1_455  S
Mg455       O461   2.145       .  S
Mg455       O469   2.241       .  S
Mg455       O457   2.276       .  S
C456        O494   1.271       .  A
C456        O462   1.278       .  A
C456        C830   1.474       .  S
O457        C464   1.269       .  A
H458        C471   1.081       .  S
C459        O473   1.235       .  S
C459        O474   1.271       .  A
C459        H484   1.082       .  S
O460        C483   1.268       .  A
O461       Mg475   2.156       .  S
O462       Mg492   2.333       .  S
C463        O476   1.277       .  A
C463        O468   1.283       .  A
C463        C743   1.483       .  S
C464        O491   1.280       .  A
C464        C846   1.480       .  S
Mg465       O472   2.154       .  S
Mg465       O473   2.154       .  S
Mg465       O466   2.314       .  S
Mg465       O467   2.301       .  S
Mg465       O494   2.254       .  S
O467        C471   1.272       .  A
O468      Mg1825   2.342       .  S
O469        C488   1.267       .  A
O470        C490   1.278       .  A
O470      Mg3186   2.310   1_455  S
O472       Mg486   2.162       .  S
O472        C483   1.234       .  S
O473       Mg492   2.176       .  S
O474       Mg486   2.307       .  S
Mg475       O491   2.342       .  S
Mg475      O1818   2.342   1_545  S
O476      Mg1842   2.313       .  S
H477        C482   1.082       .  S
O478       Mg486   2.160       .  S
O478        C481   1.238       .  S
H479        C481   1.081       .  S
H480        C483   1.081       .  S
O485       Mg492   2.294   1_565  S
Mg486      O3154   2.320       .  S
Mg486      O3170   2.310       .  S
C488        O493   1.275       .  A
C488        C862   1.475       .  S
O489        C490   1.273       .  A
O489      Mg3149   2.285   1_455  S
C490        C770   1.471       .  S
Mg492      O1826   2.313   1_545  S
O495       Mg497   2.150       .  S
O495       Mg503   2.144       .  S
O495        C530   1.236       .  S
C496        O509   1.233       .  S
C496        O533   1.267       .  A
C496        H535   1.081       .  S
Mg497       O526   2.184       .  S
Mg497       O541   2.355       .  S
Mg497       O537   2.277       .  S
Mg497       O508   2.297       .  S
O498       Mg540   2.189       .  S
O498       Mg523   2.191       .  S
O498        C519   1.237       .  S
O499        C530   1.270       .  A
O499       Mg523   2.301       .  S
C500        O502   1.269       .  A
C500        O514   1.270       .  A
C500        C798   1.466       .  S
O501        C529   1.271       .  A
O501       Mg503   2.292       .  S
O502       Mg534   2.262       .  S
Mg503       O509   2.145       .  S
Mg503       O517   2.228       .  S
Mg503       O505   2.280       .  S
C504        O542   1.267       .  A
C504        O510   1.284       .  A
C504        C817   1.493       .  S
O505        C512   1.270       .  A
H506        C519   1.081       .  S
C507        O521   1.238       .  S
C507        O522   1.275       .  A
C507        H532   1.082       .  S
O508        C531   1.268       .  A
O509       Mg523   2.155       .  S
O510       Mg540   2.399       .  S
C511        O516   1.277       .  A
C511       O3224   1.278       .  A
C511        C768   1.469       .  S
C512       O3239   1.279       .  A
C512        C881   1.480       .  S
Mg513       O520   2.156       .  S
Mg513       O521   2.141       .  S
Mg513       O514   2.300       .  S
Mg513       O515   2.304       .  S
Mg513       O542   2.232       .  S
O515        C519   1.272       .  A
O516      Mg3223   2.317   1_455  S
O517        C536   1.267       .  A
O518        C538   1.276       .  A
O518       Mg534   2.325       .  S
O520       Mg534   2.142       .  S
O520        C531   1.233       .  S
O521       Mg540   2.171       .  S
O522       Mg534   2.327       .  S
Mg523      O3216   2.317       .  S
Mg523      O3239   2.337       .  S
O524       C3211   1.278       .  A
O524       Mg540   2.277       .  S
H525        C530   1.082       .  S
O526       Mg534   2.149       .  S
O526        C529   1.237       .  S
H527        C529   1.081       .  S
H528        C531   1.081       .  S
O533       Mg540   2.295       .  S
C536        O541   1.280       .  A
C536        C785   1.479       .  S
O537        C538   1.276       .  A
C538        C736   1.473       .  S
O539       C3212   1.279   1_455  A
O539      Mg3223   2.337   1_455  S
C543       C1057   1.481       .  S
C543        C544   1.390       .  A
C543        C548   1.415       .  A
C544        H563   1.087       .  S
C544        C545   1.392       .  A
C545       C1006   1.479       .  S
C545        C546   1.416       .  A
C546        C547   1.425       .  A
C546        C553   1.404       .  A
C547        C548   1.426       .  A
C547        C552   1.423       .  A
C548        C549   1.404       .  A
C549        H559   1.083       .  S
C549        C550   1.398       .  A
C550        H560   1.083       .  S
C550        C551   1.407       .  A
C551        C552   1.425       .  A
C551        C558   1.416       .  A
C552        C555   1.427       .  A
C553        H561   1.083       .  S
C553        C554   1.398       .  A
C554        H562   1.082       .  S
C554        C555   1.407       .  A
C555        C556   1.419       .  A
C556        C782   1.490       .  S
C556        C557   1.397       .  A
C557        H564   1.085       .  S
C557        C558   1.397       .  A
C558        C833   1.487       .  S
C565       C1150   1.490       .  S
C565        C566   1.395       .  A
C565        C570   1.424   1_655  A
C566        H585   1.086       .  S
C566        C567   1.396       .  A
C567       C1297   1.489       .  S
C567        C568   1.417       .  A
C568        C569   1.428   1_655  A
C568        C575   1.405       .  A
C569        C570   1.427       .  A
C569       C3274   1.427       .  A
C570        C571   1.408       .  A
C571        H581   1.082       .  S
C571       C3272   1.403       .  A
C572        H582   1.083       .  S
C572        C573   1.406       .  A
C572       C3271   1.403       .  A
C573        C574   1.430       .  A
C573        C580   1.425       .  A
C574        C577   1.427       .  A
C574       C3269   1.427       .  A
C575        H583   1.083       .  S
C575       C3276   1.397   1_655  A
C576        H584   1.082       .  S
C576        C577   1.406       .  A
C576       C3275   1.397       .  A
C577        C578   1.416       .  A
C578        C865   1.488       .  S
C578        C579   1.395       .  A
C579        H586   1.085       .  S
C579        C580   1.395       .  A
C580        C814   1.496       .  S
C587       C1121   1.482       .  S
C587        C588   1.392       .  A
C587        C592   1.411       .  A
C588        H607   1.086       .  S
C588        C589   1.395       .  A
C589       C1310   1.476       .  S
C589        C590   1.413       .  A
C590        C591   1.423       .  A
C590        C597   1.407       .  A
C591        C592   1.426       .  A
C591        C596   1.418       .  A
C592        C593   1.403       .  A
C593        H603   1.083       .  S
C593        C594   1.395       .  A
C594        H604   1.083       .  S
C594        C595   1.405       .  A
C595        C596   1.423       .  A
C595        C602   1.408       .  A
C596        C599   1.426       .  A
C597        H605   1.083       .  S
C597        C598   1.399       .  A
C598        H606   1.083       .  S
C598        C599   1.405       .  A
C599        C600   1.416       .  A
C600        C961   1.480       .  S
C600        C601   1.393       .  A
C601        H608   1.086       .  S
C601        C602   1.392       .  A
C602        C801   1.476       .  S
C609       C1169   1.483       .  S
C609        C610   1.394       .  A
C609        C614   1.414       .  A
C610        H629   1.085       .  S
C610        C611   1.399       .  A
C611       C1105   1.497       .  S
C611        C612   1.428       .  A
C612        C613   1.429       .  A
C612        C619   1.408       .  A
C613        C614   1.424       .  A
C613       C1968   1.427       .  A
C614        C615   1.407       .  A
C615        H625   1.082       .  S
C615       C1966   1.393       .  A
C616        H626   1.083       .  S
C616        C617   1.402       .  A
C616       C1965   1.393       .  A
C617        C618   1.428       .  A
C617        C624   1.414       .  A
C618        C621   1.427       .  A
C618       C1963   1.427       .  A
C619        H627   1.082       .  S
C619       C1970   1.404       .  A
C620        H628   1.083       .  S
C620        C621   1.407       .  A
C620       C1969   1.404       .  A
C621        C622   1.423       .  A
C622        C849   1.488       .  S
C622        C623   1.394       .  A
C623        H630   1.086   1_545  S
C623        C624   1.392       .  A
C624        C942   1.487   1_545  S
O631       Mg639   2.165   1_556  S
O631      Mg1983   2.159   1_545  S
O631        C666   1.233       .  S
C632        O645   1.234       .  S
C632        O669   1.267       .  A
C632        H671   1.081       .  S
Mg633       O662   2.178   1_556  S
Mg633      O1981   2.159       .  S
Mg633       O677   2.344   1_556  S
Mg633       O673   2.272       .  S
Mg633       O644   2.314       .  S
O634       Mg676   2.174   1_556  S
O634       Mg659   2.159       .  S
O634        C655   1.234       .  S
O635       C3366   1.267   1_455  A
O635       Mg659   2.292       .  S
C636        O638   1.276       .  A
C636       O3350   1.275       .  A
C636       C3050   1.483       .  S
O637        C665   1.272       .  A
O637      Mg1989   2.314       .  S
O638       Mg670   2.307       .  S
Mg639      O3345   2.158       .  S
Mg639       O653   2.281       .  S
Mg639       O641   2.317   1_554  S
Mg639      O1987   2.314   1_545  S
C640        O646   1.272       .  A
C640       O2028   1.273   1_545  A
C640       C1577   1.468   1_556  S
O641       C3348   1.275       .  A
H642        C655   1.081       .  S
C643        O657   1.232       .  S
C643       O3358   1.268       .  A
C643        H668   1.081       .  S
O644        C667   1.272       .  A
O645       Mg659   2.184   1_554  S
O645      Mg3339   2.158   1_455  S
O646       Mg676   2.293   1_556  S
C647        O660   1.273       .  A
C647        O652   1.272   1_554  A
C648        O675   1.272       .  A
C648       O3341   1.275   1_455  A
C648       C3023   1.468       .  S
Mg649       O657   2.163   1_556  S
Mg649      O3356   2.187   1_455  S
Mg649       O650   2.325   1_556  S
Mg649       O651   2.306       .  S
Mg649       O678   2.292       .  S
O650       C3336   1.275       .  A
O651       C2005   1.269       .  A
O652       Mg659   2.298       .  S
O653       C2022   1.272   1_545  A
O654        C674   1.273   1_554  A
O654       Mg670   2.303       .  S
C655       O2001   1.269   1_545  A
O656       Mg670   2.176   1_556  S
O656      Mg3349   2.187       .  S
O656        C667   1.236       .  S
O657      Mg2026   2.178       .  S
O658       C3343   1.268       .  A
O658       Mg670   2.304       .  S
Mg659       O675   2.266       .  S
O660       Mg676   2.285       .  S
H661        C666   1.081       .  S
O662       Mg670   2.192       .  S
O662        C665   1.235       .  S
H663        C665   1.081       .  S
H664        C667   1.081       .  S
C666       O3335   1.267       .  A
O669       Mg676   2.288       .  S
C672        O677   1.279       .  A
C672       O2003   1.272       .  A
C672       C1604   1.478       .  S
O673        C674   1.272       .  A
Mg676      O2007   2.178   1_545  S
O678       C1990   1.273       .  A
O679       Mg681   2.175       .  S
O679       Mg687   2.165       .  S
O679        C714   1.234       .  S
C680        O693   1.235       .  S
C680        O717   1.270       .  A
C680        H719   1.081       .  S
Mg681       O710   2.192       .  S
Mg681       O725   2.313       .  S
Mg681       O721   2.290       .  S
Mg681       O692   2.286       .  S
O682       Mg724   2.181       .  S
O682       Mg707   2.169       .  S
O682        C703   1.236       .  S
O683        C714   1.271       .  A
O683       Mg707   2.313       .  S
C684        O686   1.273       .  A
C684        O698   1.276       .  A
O685        C713   1.269       .  A
O685       Mg687   2.300       .  S
O686       Mg718   2.292       .  S
Mg687       O693   2.192       .  S
Mg687       O701   2.316       .  S
Mg687       O689   2.319       .  S
C688        O726   1.273       .  A
C688        O694   1.274       .  A
O689        C696   1.277       .  A
H690        C703   1.081       .  S
C691        O705   1.234       .  S
C691        O706   1.269       .  A
C691        H716   1.081       .  S
O692        C715   1.266       .  A
O693       Mg707   2.173       .  S
O694       Mg724   2.309       .  S
C695        O708   1.272       .  A
C695        O700   1.275       .  A
C696        O723   1.272       .  A
Mg697       O704   2.151       .  S
Mg697       O705   2.165       .  S
Mg697       O698   2.313       .  S
Mg697       O699   2.304       .  S
Mg697       O726   2.280       .  S
O699        C703   1.271       .  A
O700       Mg707   2.319       .  S
O701        C720   1.277       .  A
O702        C722   1.272       .  A
O702       Mg718   2.287       .  S
O704       Mg718   2.171       .  S
O704        C715   1.232       .  S
O705       Mg724   2.162       .  S
O706       Mg718   2.299       .  S
Mg707       O723   2.282       .  S
O708       Mg724   2.284       .  S
H709        C714   1.081       .  S
O710       Mg718   2.170       .  S
O710        C713   1.235       .  S
H711        C713   1.081       .  S
H712        C715   1.081       .  S
O717       Mg724   2.306       .  S
C720        O725   1.274       .  A
O721        C722   1.275       .  A
O727       Mg729   2.161       .  S
O727       Mg735   2.182       .  S
O727        C762   1.234       .  S
C728        O741   1.233       .  S
C728        O765   1.268       .  A
C728        H767   1.081       .  S
Mg729       O758   2.183       .  S
Mg729       O773   2.275       .  S
Mg729       O769   2.280       .  S
Mg729       O740   2.289       .  S
O730       Mg772   2.185       .  S
O730       Mg755   2.164       .  S
O730        C751   1.235       .  S
O731        C762   1.268       .  A
O731       Mg755   2.295       .  S
C732        O734   1.274       .  A
C732        O746   1.276       .  A
O733        C761   1.267       .  A
O733       Mg735   2.289       .  S
O734       Mg766   2.294       .  S
Mg735       O741   2.167       .  S
Mg735       O749   2.301       .  S
Mg735       O737   2.302       .  S
C736        O774   1.274       .  A
C736        O742   1.276       .  A
O737        C744   1.276       .  A
H738        C751   1.081       .  S
C739        O753   1.234       .  S
C739        O754   1.269       .  A
C739        H764   1.081       .  S
O740        C763   1.267       .  A
O741       Mg755   2.185       .  S
O742       Mg772   2.310       .  S
C743        O756   1.278       .  A
C743        O748   1.275       .  A
C744        O771   1.274       .  A
Mg745       O752   2.160       .  S
Mg745       O753   2.178       .  S
Mg745       O746   2.310       .  S
Mg745       O747   2.298       .  S
Mg745       O774   2.286       .  S
O747        C751   1.269       .  A
O748       Mg755   2.305       .  S
O749        C768   1.276       .  A
O750        C770   1.276       .  A
O750       Mg766   2.306       .  S
O752       Mg766   2.183       .  S
O752        C763   1.234       .  S
O753       Mg772   2.179       .  S
O754       Mg766   2.300       .  S
Mg755       O771   2.292       .  S
O756       Mg772   2.324       .  S
H757        C762   1.081       .  S
O758       Mg766   2.147       .  S
O758        C761   1.233       .  S
H759        C761   1.081       .  S
H760        C763   1.081       .  S
O765       Mg772   2.293       .  S
C768        O773   1.270       .  A
O769        C770   1.272       .  A
C775        C780   1.380       .  A
C775        C776   1.404       .  A
C775        O781   1.324       .  A
C776        H787   1.082       .  S
C776        C777   1.406       .  A
C777        C786   1.358       .  A
C777        C778   1.380       .  A
C778        C779   1.404       .  A
C778        O784   1.325       .  A
C779        H788   1.082       .  S
C779        C780   1.406       .  A
C780        C783   1.358       .  A
O781        C782   1.332       .  A
C782        C783   1.396       .  A
C783        H789   1.083       .  S
O784        C785   1.332       .  A
C785        C786   1.395       .  A
C786        H790   1.083       .  S
C791        C796   1.380       .  A
C791        C792   1.399       .  A
C791        O797   1.315       .  A
C792        H803   1.082       .  S
C792        C793   1.399       .  A
C793        C802   1.356       .  A
C793        C794   1.380       .  A
C794        C795   1.406       .  A
C794        O800   1.320       .  A
C795        H804   1.082       .  S
C795        C796   1.405       .  A
C796        C799   1.365       .  A
O797        C798   1.328       .  A
C798        C799   1.393       .  A
C799        H805   1.082       .  S
O800        C801   1.332       .  A
C801        C802   1.392       .  A
C802        H806   1.083       .  S
C807        C812   1.379       .  A
C807        C808   1.406       .  A
C807        O813   1.327       .  A
C808        H819   1.082       .  S
C808        C809   1.408       .  A
C809        C818   1.359       .  A
C809        C810   1.379       .  A
C810        C811   1.410       .  A
C810        O816   1.332       .  A
C811       H3520   1.082       .  S
C811        C812   1.413       .  A
C812        C815   1.363       .  A
O813        C814   1.334       .  A
C814        C815   1.401       .  A
C815       H3521   1.083       .  S
O816        C817   1.336       .  A
C817        C818   1.396       .  A
C818        H822   1.083       .  S
H820       C3511   1.082       .  S
H821       C3515   1.083       .  S
C823        C824   1.401   1_545  A
C823       C2178   1.381       .  A
C823        O829   1.321       .  A
C824        H835   1.082       .  S
C824       C2175   1.403       .  A
C825        C834   1.357       .  A
C825        C826   1.380       .  A
C825       C2174   1.403       .  A
C826        C827   1.406       .  A
C826        O832   1.324       .  A
C827        H836   1.082       .  S
C827        C828   1.407       .  A
C828        C831   1.362       .  A
C828       C2173   1.381       .  A
O829        C830   1.330       .  A
C830       C2181   1.394       .  A
C831        H837   1.083       .  S
C831       C2180   1.394       .  A
O832        C833   1.333       .  A
C833        C834   1.394       .  A
C834        H838   1.083       .  S
C839        C844   1.378       .  A
C839        C840   1.410       .  A
C839        O845   1.320       .  A
C840        H851   1.082       .  S
C840        C841   1.407       .  A
C841        C850   1.373       .  A
C841        C842   1.378   1_545  A
C842       C2193   1.407       .  A
C842       O2198   1.316       .  A
C843        H852   1.082       .  S
C843       C2192   1.407       .  A
C843       C2194   1.403       .  A
C844        C847   1.370   1_545  A
C844       C2193   1.403   1_545  A
O845        C846   1.335       .  A
C846        C847   1.392   1_545  A
C847       H2203   1.082       .  S
O848       C2192   1.316       .  A
O848       C2199   1.335       .  A
C849        C850   1.396       .  A
C849       O2198   1.335   1_545  A
C850        H854   1.082       .  S
H853       C2197   1.082       .  S
C855        C860   1.380       .  A
C855        C856   1.402       .  A
C855        O861   1.322       .  A
C856        H867   1.082       .  S
C856        C857   1.404       .  A
C857        C866   1.356       .  A
C857        C858   1.380       .  A
C858        C859   1.405       .  A
C858        O864   1.324       .  A
C859        H868   1.082       .  S
C859        C860   1.406       .  A
C860        C863   1.361       .  A
O861        C862   1.331       .  A
C862        C863   1.394       .  A
C863        H869   1.083       .  S
O864        C865   1.333       .  A
C865        C866   1.395       .  A
C866        H870   1.083       .  S
C871        C876   1.378       .  A
C871        C872   1.408   1_455  A
C871        O877   1.325       .  A
C872       H3583   1.082       .  S
C872        C873   1.408       .  A
C873        C874   1.379   1_655  A
C873       C3582   1.364       .  A
C874        C875   1.405       .  A
C874        O880   1.325       .  A
C875        H884   1.082       .  S
C875        C876   1.407       .  A
C876        C879   1.360       .  A
O877        C878   1.335       .  A
C878        C879   1.399       .  A
C879        H885   1.083       .  S
O880       C3581   1.333   1_455  A
C881        C882   1.395       .  A
C881       O3580   1.333       .  A
C882        H886   1.083       .  S
C882       C3573   1.364       .  A
H883       C3572   1.082       .  S
C887        C892   1.379       .  A
C887       C3588   1.408       .  A
C887        O893   1.326       .  A
C888        H899   1.082       .  S
C888        C889   1.408       .  A
C888       C3587   1.408       .  A
C889        C898   1.365       .  A
C889       C3590   1.379       .  A
C890        C891   1.407       .  A
C890       C3589   1.379       .  A
C890        O896   1.326       .  A
C891        H900   1.082       .  S
C891        C892   1.409       .  A
C892        C895   1.362       .  A
O893        C894   1.334       .  A
C894        C895   1.399       .  A
C895        H901   1.083       .  S
O896       C3597   1.334       .  A
C897        C898   1.395       .  A
C897       O3596   1.334       .  A
C898        H902   1.082       .  S
C903        C908   1.378       .  A
C903        C904   1.405       .  A
C903        O909   1.315       .  A
C904        H915   1.082       .  S
C904        C905   1.402       .  A
C905        C914   1.367       .  A
C905        C906   1.378       .  A
C906        C907   1.410       .  A
C906        O912   1.317       .  A
C907        H916   1.082       .  S
C907        C908   1.405       .  A
C908        C911   1.373       .  A
O909       C2260   1.332       .  A
C910       C2261   1.394   1_545  A
C910       O2259   1.332       .  A
C911        H917   1.082       .  S
C911       C2260   1.394       .  A
O912        C913   1.336       .  A
C913        C914   1.393       .  A
C914        H918   1.083       .  S
C919        C924   1.380       .  A
C919        C920   1.406       .  A
C919        O925   1.317       .  A
C920        H931   1.083       .  S
C920        C921   1.404       .  A
C921        C930   1.369       .  A
C921        C922   1.380       .  A
C922        C923   1.404       .  A
C922        O928   1.315       .  A
C923        H932   1.082       .  S
C923        C924   1.401       .  A
C924        C927   1.366       .  A
O925        C926   1.332       .  A
C926        C927   1.390       .  A
C927        H933   1.082       .  S
O928        C929   1.332       .  A
C929        C930   1.393       .  A
C930        H934   1.083       .  S
C935        C940   1.380   1_545  A
C935        C936   1.404       .  A
C935        O941   1.324       .  A
C936        H947   1.083       .  S
C936        C937   1.406       .  A
C937        C946   1.357       .  A
C937        C938   1.380   1_545  A
C938       C2289   1.403       .  A
C938        O944   1.326       .  A
C939        H948   1.082       .  S
C939       C2288   1.403       .  A
C939       C2290   1.406       .  A
C940       C2289   1.406       .  A
C940       C2293   1.358       .  A
O941        C942   1.332   1_545  A
C942       C2293   1.395       .  A
C943        H949   1.083       .  S
C943       C2290   1.358       .  A
C943       C2292   1.395       .  A
O944        C945   1.332   1_565  A
C945        C946   1.395       .  A
C946        H950   1.083       .  S
C951        C956   1.379       .  A
C951        C952   1.405       .  A
C951        O957   1.317       .  A
C952        H963   1.082       .  S
C952        C953   1.404       .  A
C953        C962   1.367       .  A
C953        C954   1.379       .  A
C954        C955   1.406       .  A
C954        O960   1.316       .  A
C955        H964   1.082       .  S
C955        C956   1.402       .  A
C956        C959   1.368       .  A
O957        C958   1.332       .  A
C958        C959   1.391       .  A
C959        H965   1.082       .  S
O960        C961   1.334       .  A
C961        C962   1.393       .  A
C962        H966   1.083       .  S
C967        C972   1.380       .  A
C967        C968   1.406       .  A
C967       O3673   1.325   1_455  A
C968       H3679   1.082       .  S
C968        C969   1.408       .  A
C969        C978   1.363       .  A
C969        C970   1.380       .  A
C970        C971   1.406       .  A
C970        O976   1.324       .  A
C971        H980   1.082       .  S
C971        C972   1.406       .  A
C972        C975   1.362       .  A
O973       C3667   1.325       .  A
O973       C3674   1.333       .  A
C974        C975   1.395   1_655  A
C974       O3673   1.333       .  A
C975        H981   1.083       .  S
O976        C977   1.333       .  A
C977        C978   1.397       .  A
C978        H982   1.083       .  S
H979       C3668   1.082       .  S
C983        C988   1.379       .  A
C983        C984   1.404       .  A
C983        O989   1.317       .  A
C984        H995   1.082       .  S
C984        C985   1.402       .  A
C985        C994   1.363       .  A
C985        C986   1.379       .  A
C986        C987   1.409       .  A
C986        O992   1.324       .  A
C987        H996   1.082       .  S
C987        C988   1.409       .  A
C988        C991   1.369       .  A
O989        C990   1.333       .  A
C990        C991   1.395       .  A
C991        H997   1.082       .  S
O992        C993   1.335       .  A
C993        C994   1.393       .  A
C994        H998   1.083       .  S
C999       C1004   1.379       .  A
C999       C1000   1.404       .  A
C999       O1005   1.315       .  A
C1000      H1011   1.082       .  S
C1000      C1001   1.401       .  A
C1001      C1010   1.364       .  A
C1001      C1002   1.379       .  A
C1002      C1003   1.406       .  A
C1002      O1008   1.320       .  A
C1003      H1012   1.082       .  S
C1003      C1004   1.405       .  A
C1004      C1007   1.367       .  A
O1005      C1006   1.333       .  A
C1006      C1007   1.394       .  A
C1007      H1013   1.083       .  S
O1008      C1009   1.332       .  A
C1009      C1010   1.391       .  A
C1010      H1014   1.082       .  S
C1015      C1020   1.380       .  A
C1015      C1016   1.404       .  A
C1015      O1021   1.326       .  A
C1016      H1027   1.082       .  S
C1016      C1017   1.406       .  A
C1017      C1026   1.358       .  A
C1017      C1018   1.380       .  A
C1018      C1019   1.405       .  A
C1018      O1024   1.327       .  A
C1019      H1028   1.082       .  S
C1019      C1020   1.408       .  A
C1020      C1023   1.359       .  A
O1021      C1022   1.333       .  A
C1022      C1023   1.397       .  A
C1023      H1029   1.083       .  S
O1024      C1025   1.333       .  A
C1025      C1026   1.395       .  A
C1026      H1030   1.083       .  S
C1031      C1036   1.381       .  A
C1031      C1032   1.404       .  A
C1031      O1037   1.323       .  A
C1032      H1043   1.082       .  S
C1032      C1033   1.405       .  A
C1033      C1042   1.360       .  A
C1033      C1034   1.381       .  A
C1034      C1035   1.404       .  A
C1034      O2390   1.324       .  A
C1035      H2394   1.082       .  S
C1035      C1036   1.406       .  A
C1036      C1039   1.360       .  A
O1037      C1038   1.332       .  A
C1038      C1039   1.394       .  A
C1039      H1045   1.083       .  S
O1040      C2384   1.324       .  A
O1040      C2391   1.331       .  A
C1041      C1042   1.394       .  A
C1041      O2390   1.331       .  A
C1042      H1046   1.083       .  S
H1044      C2385   1.082       .  S
C1047      C1052   1.379       .  A
C1047      C1048   1.406       .  A
C1047      O1053   1.326       .  A
C1048      H2409   1.082       .  S
C1048      C1049   1.408       .  A
C1049      C1058   1.362       .  A
C1049      C1050   1.379       .  A
C1050      C1051   1.403       .  A
C1050      O1056   1.321       .  A
C1051      H1060   1.082       .  S
C1051      C1052   1.403       .  A
C1052      C1055   1.356       .  A
O1053      C1054   1.333       .  A
C1054      C1055   1.394       .  A
C1055      H1061   1.083       .  S
O1056      C1057   1.332       .  A
C1057      C1058   1.397       .  A
C1058      H1062   1.083       .  S
H1059      C2398   1.082       .  S
C1063      C1068   1.380       .  A
C1063      C1064   1.403       .  A
C1063      O1069   1.321       .  A
C1064      H3775   1.082       .  S
C1064      C1065   1.404       .  A
C1065      C1074   1.359       .  A
C1065      C1066   1.380       .  A
C1066      C1067   1.405       .  A
C1066      O1072   1.321       .  A
C1067      H1076   1.082       .  S
C1067      C1068   1.405       .  A
C1068      C1071   1.362       .  A
O1069      C1070   1.331       .  A
C1070      C1071   1.393       .  A
C1071      H1077   1.083       .  S
O1072      C1073   1.332       .  A
C1073      C1074   1.394       .  A
C1074      H1078   1.083       .  S
H1075      C3764   1.082       .  S
C1079      C1084   1.378       .  A
C1079      C1080   1.410       .  A
C1079      O1085   1.320       .  A
C1080      H1091   1.082       .  S
C1080      C1081   1.407       .  A
C1081      C1090   1.374       .  A
C1081      C1082   1.378       .  A
C1082      C1083   1.409       .  A
C1082      O1088   1.318       .  A
C1083      H1092   1.082       .  S
C1083      C1084   1.405       .  A
C1084      C1087   1.373       .  A
O1085      C1086   1.336       .  A
C1086      C1087   1.394       .  A
C1087      H1093   1.082       .  S
O1088      C1089   1.336       .  A
C1089      C1090   1.395       .  A
C1090      H1094   1.082       .  S
C1095      C1100   1.378       .  A
C1095      C1096   1.410       .  A
C1095      O1101   1.321       .  A
C1096      H1107   1.082       .  S
C1096      C1097   1.407       .  A
C1097      C1106   1.373       .  A
C1097      C1098   1.378       .  A
C1098      C1099   1.410       .  A
C1098      O1104   1.319       .  A
C1099      H1108   1.082       .  S
C1099      C1100   1.407       .  A
C1100      C1103   1.373       .  A
O1101      C1102   1.335       .  A
C1102      C1103   1.395       .  A
C1103      H1109   1.082       .  S
O1104      C1105   1.337       .  A
C1105      C1106   1.396       .  A
C1106      H1110   1.082       .  S
C1111      C1116   1.380       .  A
C1111      C1112   1.401       .  A
C1111      O1117   1.317       .  A
C1112      H1123   1.082       .  S
C1112      C1113   1.401       .  A
C1113      C1122   1.358       .  A
C1113      C1114   1.379       .  A
C1114      C1115   1.409       .  A
C1114      O1120   1.323       .  A
C1115      H1124   1.082       .  S
C1115      C1116   1.407       .  A
C1116      C1119   1.368       .  A
O1117      C1118   1.330       .  A
C1118      C1119   1.394       .  A
C1119      H1125   1.082       .  S
O1120      C1121   1.334       .  A
C1121      C1122   1.393       .  A
C1122      H1126   1.083       .  S
C1127      C1132   1.379       .  A
C1127      C1128   1.409       .  A
C1127      O1133   1.318       .  A
C1128      H1139   1.082       .  S
C1128      C1129   1.406       .  A
C1129      C1138   1.373       .  A
C1129      C1130   1.378       .  A
C1130      C1131   1.408       .  A
C1130      O1136   1.316       .  A
C1131      H1140   1.082       .  S
C1131      C1132   1.404       .  A
C1132      C1135   1.371       .  A
O1133      C1134   1.334       .  A
C1134      C1135   1.393       .  A
C1135      H1141   1.082       .  S
O1136      C1137   1.335       .  A
C1137      C1138   1.396       .  A
C1138      H1142   1.082       .  S
C1143      C1148   1.378   1_655  A
C1143      C1144   1.409       .  A
C1143      O1149   1.319       .  A
C1144      H3855   1.082       .  S
C1144      C1145   1.406   1_655  A
C1145      C1154   1.371   1_455  A
C1145      C1146   1.379       .  A
C1146      C1147   1.408       .  A
C1146      O1152   1.319       .  A
C1147      H1156   1.082       .  S
C1147      C1148   1.406       .  A
C1148      C1151   1.370       .  A
O1149      C1150   1.336       .  A
C1150      C1151   1.394   1_655  A
C1151      H1157   1.082       .  S
O1152      C1153   1.334       .  A
C1153      C1154   1.394   1_455  A
C1154      H1158   1.082       .  S
H1155      C3844   1.082       .  S
C1159      C1164   1.380       .  A
C1159      C1160   1.404       .  A
C1159      O1165   1.318       .  A
C1160      H1171   1.082       .  S
C1160      C1161   1.403       .  A
C1161      C1170   1.364       .  A
C1161      C1162   1.380       .  A
C1162      C1163   1.404       .  A
C1162      O1168   1.317       .  A
C1163      H2522   1.082       .  S
C1163      C1164   1.402       .  A
C1164      C1167   1.364       .  A
O1165      C1166   1.332       .  A
C1166      C1167   1.391       .  A
C1167      H1173   1.083       .  S
O1168      C1169   1.332       .  A
C1169      C1170   1.392       .  A
C1170      H1174   1.083       .  S
H1172      C2513   1.082       .  S
C1175      C1176   1.403       .  A
C1175      C3880   1.381       .  A
C1175      O3881   1.321       .  A
C1176      H1187   1.082       .  S
C1176      C1177   1.404       .  A
C1177      C1186   1.361       .  A
C1177      C1178   1.381       .  A
C1178      C1179   1.404       .  A
C1178      O1184   1.321       .  A
C1179      H1188   1.082       .  S
C1179      C3880   1.404       .  A
C1180      C1183   1.361       .  A
C1180      C3875   1.381   1_455  A
C1180      C3879   1.404       .  A
O1181      C1182   1.331       .  A
O1181      C3875   1.321   1_455  A
C1182      C1183   1.393       .  A
C1183      H1189   1.083       .  S
O1184      C1185   1.331       .  A
C1185      C1186   1.393       .  A
C1186      H1190   1.083       .  S
C1191      C1196   1.380       .  A
C1191      C1192   1.407       .  A
C1191      O3897   1.327       .  A
C1192      H3903   1.082       .  S
C1192      C1193   1.409       .  A
C1193      C1202   1.362       .  A
C1193      C1194   1.380       .  A
C1194      C1195   1.405       .  A
C1194      O1200   1.325       .  A
C1195      H1204   1.082       .  S
C1195      C1196   1.407       .  A
C1196      C1199   1.361       .  A
O1197      C3891   1.327       .  A
O1197      C3898   1.334       .  A
C1198      C1199   1.395       .  A
C1198      O3897   1.334       .  A
C1199      H1205   1.083       .  S
O1200      C1201   1.333       .  A
C1201      C1202   1.398       .  A
C1202      H1206   1.083       .  S
H1203      C3892   1.082       .  S
C1207      C1212   1.380   1_565  A
C1207      C1208   1.403       .  A
C1207      O1213   1.317   1_565  A
C1208      H1219   1.082       .  S
C1208      C1209   1.402       .  A
C1209      C1218   1.362       .  A
C1209      C1210   1.381       .  A
C1210      C1211   1.404       .  A
C1210      O1216   1.319       .  A
C1211      H1220   1.082   1_565  S
C1211      C1212   1.403   1_565  A
C1212      C1215   1.364       .  A
O1213      C1214   1.332       .  A
C1214      C1215   1.392       .  A
C1215      H1221   1.083       .  S
O1216      C1217   1.331       .  A
C1217      C1218   1.391       .  A
C1218      H1222   1.083       .  S
C1223      C1228   1.379       .  A
C1223      C1224   1.407   1_545  A
C1223      O1229   1.325       .  A
C1224      H1235   1.082       .  S
C1224      C1225   1.407       .  A
C1225      C1226   1.380   1_565  A
C1225      C2584   1.363       .  A
C1226      C1227   1.402       .  A
C1226      O1232   1.322       .  A
C1227      H1236   1.082       .  S
C1227      C1228   1.404       .  A
C1228      C1231   1.357       .  A
O1229      C1230   1.334       .  A
C1230      C1231   1.396       .  A
C1231      H1237   1.083       .  S
O1232      C2583   1.330   1_545  A
C1233      C1234   1.395       .  A
C1233      O2582   1.330       .  A
C1234      H1238   1.083       .  S
C1234      C2575   1.363       .  A
C1239      C1244   1.382       .  A
C1239      C1240   1.403       .  A
C1239      O1245   1.313       .  A
C1240      H1251   1.082       .  S
C1240      C1241   1.399       .  A
C1241      C1250   1.363       .  A
C1241      C1242   1.379       .  A
C1242      C1243   1.400       .  A
C1242      O1248   1.314       .  A
C1243      H1252   1.083       .  S
C1243      C1244   1.400       .  A
C1244      C1247   1.361       .  A
O1245      C1246   1.331       .  A
C1246      C1247   1.391       .  A
C1247      H1253   1.083       .  S
O1248      C1249   1.329       .  A
C1249      C1250   1.390       .  A
C1250      H1254   1.082       .  S
C1255      C1260   1.379       .  A
C1255      C1256   1.409       .  A
C1255      O1261   1.328       .  A
C1256      H1267   1.082       .  S
C1256      C1257   1.411       .  A
C1257      C1266   1.365       .  A
C1257      C1258   1.378       .  A
C1258      C1259   1.407       .  A
C1258      O1264   1.326       .  A
C1259      H1268   1.082       .  S
C1259      C1260   1.408       .  A
C1260      C1263   1.364       .  A
O1261      C1262   1.335       .  A
C1262      C1263   1.396       .  A
C1263      H1269   1.083       .  S
O1264      C1265   1.334       .  A
C1265      C1266   1.400       .  A
C1266      H1270   1.083       .  S
C1271      C1276   1.379       .  A
C1271      C1272   1.402       .  A
C1271      O2627   1.320       .  A
C1272      H1283   1.082       .  S
C1272      C1273   1.403       .  A
C1273      C1282   1.359       .  A
C1273      C1274   1.379       .  A
C1274      C1275   1.406       .  A
C1274      O1280   1.321       .  A
C1275      H1284   1.082       .  S
C1275      C1276   1.406       .  A
C1276      C1279   1.363   1_545  A
O1277      C1278   1.331       .  A
O1277      C2621   1.320       .  A
C1278      C2629   1.395       .  A
C1279      H1285   1.083       .  S
C1279      C2628   1.395   1_565  A
O1280      C1281   1.333       .  A
C1281      C1282   1.394       .  A
C1282      H1286   1.083       .  S
C1287      C1292   1.381   1_655  A
C1287      C1288   1.403       .  A
C1287      O1293   1.323       .  A
C1288      H3999   1.082       .  S
C1288      C1289   1.405       .  A
C1289      C1298   1.359       .  A
C1289      C1290   1.380       .  A
C1290      C1291   1.406   1_655  A
C1290      O1296   1.325   1_655  A
C1291      H1300   1.083       .  S
C1291      C1292   1.407       .  A
C1292      C1295   1.361       .  A
O1293      C1294   1.331   1_655  A
C1294      C1295   1.395       .  A
C1295      H1301   1.083       .  S
O1296      C1297   1.333   1_455  A
C1297      C1298   1.395       .  A
C1298      H4002   1.083       .  S
H1299      C3988   1.082       .  S
H1302      C3998   1.083       .  S
C1303      C1308   1.381       .  A
C1303      C1304   1.401       .  A
C1303      O1309   1.318       .  A
C1304      H1315   1.082       .  S
C1304      C1305   1.400       .  A
C1305      C1314   1.355       .  A
C1305      C1306   1.380       .  A
C1306      C1307   1.403       .  A
C1306      O1312   1.323       .  A
C1307      H1316   1.082       .  S
C1307      C1308   1.406       .  A
C1308      C1311   1.358       .  A
O1309      C1310   1.330       .  A
C1310      C1311   1.396       .  A
C1311      H1317   1.083       .  S
O1312      C1313   1.331       .  A
C1313      C1314   1.390       .  A
C1314      H1318   1.083       .  S
C1319      C1324   1.378       .  A
C1319      C4020   1.409       .  A
C1319      O1325   1.318       .  A
C1320      H1331   1.082       .  S
C1320      C1321   1.405       .  A
C1320      C4019   1.409       .  A
C1321      C1330   1.372       .  A
C1321      C4022   1.378   1_655  A
C1322      C1323   1.403       .  A
C1322      C4021   1.378       .  A
C1322      O1328   1.314       .  A
C1323      H1332   1.082       .  S
C1323      C1324   1.401       .  A
C1324      C1327   1.364       .  A
O1325      C1326   1.336       .  A
C1326      C1327   1.393       .  A
C1327      H1333   1.083       .  S
O1328      C4029   1.331       .  A
C1329      C1330   1.393   1_455  A
C1329      O4028   1.331       .  A
C1330      H1334   1.082       .  S
C1335      C1340   1.380       .  A
C1335      C1336   1.406       .  A
C1335      O1341   1.323       .  A
C1336      H1347   1.082       .  S
C1336      C1337   1.406       .  A
C1337      C1346   1.365       .  A
C1337      C1338   1.380       .  A
C1338      C1339   1.403       .  A
C1338      O1344   1.320       .  A
C1339      H1348   1.083       .  S
C1339      C1340   1.403       .  A
C1340      C1343   1.360       .  A
O1341      C1342   1.332       .  A
C1342      C1343   1.394       .  A
C1343      H1349   1.083       .  S
O1344      C1345   1.331       .  A
C1345      C1346   1.394       .  A
C1346      H1350   1.083       .  S
O1351     Mg1353   2.170       .  S
O1351     Mg1359   2.152       .  S
O1351      C1386   1.238       .  S
C1352      O1365   1.233       .  S
C1352      O1389   1.267       .  A
C1352      H1391   1.081       .  S
Mg1353     O1382   2.162       .  S
Mg1353     O1397   2.343       .  S
Mg1353     O1393   2.297   1_455  S
Mg1353     O1364   2.306       .  S
O1354     Mg1396   2.160       .  S
O1354     Mg1379   2.139       .  S
O1354      C1375   1.238       .  S
O1355      C1386   1.274       .  A
O1355     Mg1379   2.319       .  S
C1356      O1358   1.278   1_455  A
C1356      O1370   1.265       .  A
C1356      C2679   1.469       .  S
O1357      C1385   1.270       .  A
O1357     Mg1359   2.292       .  S
O1358     Mg1390   2.340   1_655  S
Mg1359     O1365   2.140       .  S
Mg1359     O1373   2.229       .  S
Mg1359     O1361   2.249       .  S
C1360      O1398   1.270       .  A
C1360      O1366   1.272       .  A
C1360      C2695   1.475       .  S
O1361      C1368   1.266       .  A
H1362      C1375   1.081       .  S
C1363      O1377   1.238       .  S
C1363      O1378   1.274       .  A
C1363      H1388   1.082       .  S
O1364      C1387   1.269       .  A
O1365     Mg1379   2.149       .  S
O1366     Mg1396   2.304       .  S
C1367      O1380   1.273       .  A
C1367      O1372   1.279       .  A
C1367      C2038   1.469       .  S
C1368      O1395   1.273       .  A
C1368      C2663   1.466       .  S
Mg1369     O1376   2.168       .  S
Mg1369     O1377   2.143       .  S
Mg1369     O1370   2.237       .  S
Mg1369     O1371   2.301       .  S
Mg1369     O1398   2.271       .  S
O1371      C1375   1.272       .  A
O1372     Mg1379   2.326       .  S
O1373      C1392   1.266       .  A
O1374      C1394   1.286       .  A
O1374     Mg4090   2.369       .  S
O1376     Mg1390   2.167       .  S
O1376      C1387   1.234       .  S
O1377     Mg1396   2.167       .  S
O1378     Mg1390   2.320       .  S
Mg1379     O1395   2.305       .  S
O1380     Mg1396   2.287       .  S
H1381      C1386   1.082       .  S
O1382     Mg1390   2.151       .  S
O1382      C1385   1.237       .  S
H1383      C1385   1.081   1_655  S
H1384      C1387   1.081       .  S
O1389     Mg1396   2.294       .  S
Mg1390     O4074   2.369   1_455  S
C1392      O1397   1.277       .  A
C1392      C2644   1.477       .  S
O1393      C4094   1.276       .  A
C1394      O4093   1.276       .  A
C1394      C2070   1.482       .  S
C1399      C2692   1.486       .  S
C1399      C1400   1.395       .  A
C1399      C1404   1.415       .  A
C1400      H1419   1.085       .  S
C1400      C1401   1.398       .  A
C1401      C2631   1.480       .  S
C1401      C1402   1.416       .  A
C1402      C1403   1.421       .  A
C1402      C1409   1.408       .  A
C1403      C1404   1.427       .  A
C1403      C1408   1.421       .  A
C1404      C1405   1.404       .  A
C1405      H1415   1.082       .  S
C1405      C1406   1.394       .  A
C1406      H1416   1.083       .  S
C1406      C1407   1.405       .  A
C1407      C1408   1.421       .  A
C1407      C1414   1.407       .  A
C1408      C1411   1.429       .  A
C1409      H1417   1.083       .  S
C1409      C1410   1.402       .  A
C1410      H1418   1.083       .  S
C1410      C1411   1.404       .  A
C1411      C1412   1.422       .  A
C1412      C2615   1.492       .  S
C1412      C1413   1.392       .  A
C1413      H1420   1.086       .  S
C1413      C1414   1.394       .  A
C1414      C2596   1.471       .  S
C1421      C2580   1.487       .  S
C1421      C1422   1.390       .  A
C1421      C1426   1.415       .  A
C1422      H1441   1.087       .  S
C1422      C1423   1.391       .  A
C1423      C2676   1.477       .  S
C1423      C1424   1.415       .  A
C1424      C1425   1.424       .  A
C1424      C1431   1.405       .  A
C1425      C1426   1.429       .  A
C1425      C1430   1.424       .  A
C1426      C1427   1.402       .  A
C1427      H1437   1.083       .  S
C1427      C1428   1.395       .  A
C1428      H1438   1.082       .  S
C1428      C1429   1.407       .  A
C1429      C1430   1.422       .  A
C1429      C1436   1.413       .  A
C1430      C1433   1.428       .  A
C1431      H1439   1.083       .  S
C1431      C1432   1.401       .  A
C1432      H1440   1.082       .  S
C1432      C1433   1.408       .  A
C1433      C1434   1.424       .  A
C1434      C2551   1.495       .  S
C1434      C1435   1.400       .  A
C1435      H1442   1.085       .  S
C1435      C1436   1.396       .  A
C1436      C2564   1.481       .  S
O1443     Mg1445   2.161       .  S
O1443     Mg1451   2.153       .  S
O1443      C1478   1.238       .  S
C1444      O1457   1.233       .  S
C1444      O1481   1.267       .  A
C1444      H1483   1.081       .  S
Mg1445     O1474   2.174       .  S
Mg1445     O1489   2.362       .  S
Mg1445     O4185   2.281   1_455  S
Mg1445     O1456   2.294   1_455  S
O1446     Mg1488   2.177       .  S
O1446     Mg1471   2.156       .  S
O1446      C1467   1.238       .  S
O1447      C1478   1.273       .  A
O1447     Mg1471   2.312       .  S
C1448      O1450   1.273       .  A
C1448      O1462   1.273       .  A
C1448      C2532   1.473       .  S
O1449      C1477   1.269       .  A
O1449     Mg1451   2.292       .  S
O1450     Mg1482   2.283       .  S
Mg1451     O1457   2.149       .  S
Mg1451     O1465   2.252       .  S
Mg1451     O1453   2.289       .  S
C1452      O1490   1.270       .  A
C1452      O1458   1.279       .  A
C1452      C2628   1.475   1_565  S
O1453      C1460   1.272       .  A
H1454      C1467   1.081   1_545  S
C1455      O1469   1.236       .  S
C1455      O1470   1.271       .  A
C1455      H1480   1.081       .  S
O1456      C1479   1.268   1_655  A
O1457     Mg1471   2.153       .  S
O1458     Mg1488   2.336       .  S
C1459      O1472   1.277       .  A
C1459      O1464   1.277       .  A
C1459      C2045   1.477       .  S
C1460      O1487   1.273   1_565  A
C1460      C2516   1.471       .  S
Mg1461     O1468   2.147       .  S
Mg1461     O1469   2.153       .  S
Mg1461     O1462   2.293       .  S
Mg1461     O1463   2.297       .  S
Mg1461     O1490   2.250       .  S
O1463      C1467   1.271       .  A
O1465      C1484   1.270       .  A
O1466      C1486   1.275       .  A
O1466     Mg4182   2.313       .  S
O1468     Mg1482   2.160       .  S
O1468      C1479   1.235       .  S
O1469     Mg1488   2.153       .  S
O1470     Mg1482   2.302       .  S
Mg1471     O1487   2.280   1_565  S
H1473      C1478   1.081       .  S
O1474     Mg1482   2.153       .  S
O1474      C1477   1.236       .  S
H1475      C1477   1.081       .  S
H1476      C1479   1.081   1_655  S
O1481     Mg1488   2.289       .  S
Mg1482     O4166   2.313   1_455  S
C1484      O1489   1.282       .  A
C1484      C2503   1.482       .  S
O1485      C1486   1.277       .  A
O1485     Mg4145   2.281       .  S
C1486      C2072   1.469       .  S
O1491     Mg1493   2.156       .  S
O1491     Mg1499   2.151       .  S
O1491      C1526   1.237       .  S
C1492      O1505   1.234       .  S
C1492      O1529   1.269       .  A
C1492      H1531   1.081       .  S
Mg1493     O1522   2.168       .  S
Mg1493     O1537   2.364       .  S
Mg1493     O1533   2.273       .  S
Mg1493     O1504   2.307       .  S
O1494     Mg1536   2.172       .  S
O1494     Mg1519   2.175       .  S
O1494      C1515   1.236       .  S
O1495      C1526   1.272       .  A
O1495     Mg1519   2.307       .  S
C1496      O1498   1.271       .  A
C1496      O1510   1.274       .  A
C1496      C2468   1.473       .  S
O1497      C1525   1.270       .  A
O1497     Mg1499   2.298       .  S
O1498     Mg1530   2.269       .  S
Mg1499     O1505   2.147       .  S
Mg1499     O1513   2.230       .  S
Mg1499     O1501   2.275       .  S
C1500      O1538   1.271       .  A
C1500      O1506   1.283       .  A
C1500      C2452   1.487   1_565  S
O1501      C1508   1.269       .  A
H1502      C1515   1.081   1_545  S
C1503      O1517   1.237       .  S
C1503      O1518   1.274       .  A
C1503      H1528   1.082       .  S
O1504      C1527   1.270       .  A
O1505     Mg1519   2.153       .  S
O1506     Mg1536   2.373       .  S
C1507      O1512   1.275       .  A
C1507      C2046   1.471       .  S
C1508      O1535   1.275       .  A
C1508      C2583   1.476       .  S
Mg1509     O1516   2.171       .  S
Mg1509     O1517   2.154       .  S
Mg1509     O1510   2.319       .  S
Mg1509     O1511   2.304       .  S
Mg1509     O1538   2.260       .  S
O1511      C1515   1.271       .  A
O1513      C1532   1.266       .  A
O1514      C1534   1.277       .  A
O1514     Mg1530   2.338       .  S
O1516     Mg1530   2.149       .  S
O1516      C1527   1.234       .  S
O1517     Mg1536   2.178       .  S
O1518     Mg1530   2.318       .  S
Mg1519     O1535   2.313       .  S
O1520     Mg1536   2.298   1_545  S
H1521      C1526   1.082       .  S
O1522     Mg1530   2.162       .  S
O1522      C1525   1.236       .  S
H1523      C1525   1.081       .  S
H1524      C1527   1.081       .  S
O1529     Mg1536   2.298       .  S
C1532      O1537   1.280       .  A
C1532      C2484   1.480       .  S
O1533      C1534   1.275       .  A
C1534      C2034   1.472       .  S
C1539      C2535   1.482       .  S
C1539      C1540   1.393       .  A
C1539      C1544   1.411       .  A
C1540      H1559   1.086       .  S
C1540      C1541   1.398       .  A
C1541      C2487   1.491       .  S
C1541      C1542   1.426       .  A
C1542      C1543   1.428       .  A
C1542      C1549   1.408       .  A
C1543      C1544   1.425       .  A
C1543      C1548   1.425       .  A
C1544      C1545   1.405       .  A
C1545      H1555   1.083       .  S
C1545      C1546   1.393       .  A
C1546      H1556   1.083       .  S
C1546      C1547   1.403       .  A
C1547      C1548   1.426       .  A
C1547      C1554   1.411       .  A
C1548      C1551   1.428       .  A
C1549      H1557   1.081       .  S
C1549      C1550   1.405       .  A
C1550      H1558   1.082       .  S
C1550      C1551   1.406       .  A
C1551      C1552   1.425       .  A
C1552      C2439   1.490       .  S
C1552      C1553   1.394       .  A
C1553      H1560   1.087       .  S
C1553      C1554   1.391       .  A
C1554      C2423   1.480       .  S
O1561     Mg1563   2.164       .  S
O1561      C1596   1.239       .  S
C1562      O1575   1.234       .  S
C1562      O1599   1.268   1_556  A
C1562      H1601   1.081       .  S
Mg1563     O1603   2.290       .  S
Mg1563     O1574   2.298   1_556  S
O1564     Mg1589   2.160   1_554  S
O1564      C1585   1.237       .  S
O1565      C1596   1.274       .  A
O1565     Mg1589   2.311       .  S
C1566      O1580   1.274       .  A
C1566      C2567   1.470       .  S
O1567      C1595   1.268       .  A
O1567     Mg1569   2.284       .  S
O1568     Mg1600   2.269       .  S
Mg1569     O1575   2.130       .  S
Mg1569     O1583   2.209       .  S
Mg1569     O1571   2.270   1_565  S
C1570      O1608   1.273       .  A
C1570      O1576   1.283       .  A
C1570      C2612   1.490       .  S
O1571      C1578   1.269       .  A
H1572      C1585   1.081       .  S
C1573      O1587   1.239       .  S
C1573      O1588   1.274       .  A
C1573      H1598   1.081       .  S
O1574      C1597   1.268       .  A
C1577      O1590   1.280       .  A
C1577      O1582   1.274   1_554  A
C1578      O1605   1.273       .  A
C1578      C2391   1.477       .  S
Mg1579     O1586   2.162       .  S
Mg1579     O1580   2.301       .  S
Mg1579     O1581   2.296       .  S
Mg1579     O1608   2.270       .  S
O1581      C1585   1.271       .  A
O1583      C1602   1.265       .  A
O1584      C1604   1.280       .  A
O1586      C1597   1.233       .  S
O1587     Mg1606   2.166       .  S
O1588     Mg1600   2.312       .  S
O1590     Mg1606   2.300   1_545  S
H1591      C1596   1.081       .  S
O1592     Mg1600   2.144   1_556  S
O1592      C1595   1.235       .  S
H1593      C1595   1.081       .  S
H1594      C1597   1.081       .  S
O1599     Mg1606   2.294       .  S
C1602      O1607   1.280       .  A
C1602      C2404   1.478       .  S
O1603      C1604   1.278   1_556  A
O1609     Mg1611   2.151       .  S
O1609     Mg1617   2.134       .  S
O1609      C1644   1.238       .  S
C1610      O1623   1.233       .  S
C1610      O1647   1.268   1_554  A
C1610      H1649   1.081       .  S
Mg1611     O1640   2.187       .  S
Mg1611     O1655   2.377       .  S
Mg1611     O1651   2.282       .  S
Mg1611     O1622   2.288   1_554  S
O1612     Mg1654   2.184       .  S
O1612     Mg1637   2.153   1_556  S
O1612      C1633   1.237       .  S
O1613      C1644   1.275       .  A
O1613     Mg1637   2.330       .  S
C1614      O1616   1.274       .  A
C1614      O1628   1.271       .  A
C1614      C2359   1.471       .  S
O1615      C1643   1.272       .  A
O1615     Mg1617   2.298       .  S
O1616     Mg1648   2.296       .  S
Mg1617     O1623   2.162       .  S
Mg1617     O1631   2.232       .  S
Mg1617     O1619   2.259       .  S
C1618      O1656   1.268       .  A
C1618      O1624   1.281       .  A
C1618      C2375   1.482       .  S
O1619      C1626   1.261       .  A
H1620      C1633   1.081       .  S
C1621      O1635   1.238       .  S
C1621      O1636   1.272       .  A
C1621      H1646   1.082       .  S
O1622      C1645   1.265       .  A
O1623     Mg1637   2.143       .  S
O1624     Mg1654   2.367       .  S
C1625      O1638   1.279   1_554  A
C1625      O1630   1.274       .  A
C1625      C1997   1.472       .  S
C1626      O1653   1.268       .  A
C1626      C2599   1.461       .  S
Mg1627     O1634   2.142       .  S
Mg1627     O1635   2.149       .  S
Mg1627     O1628   2.290       .  S
Mg1627     O1629   2.294       .  S
Mg1627     O1656   2.226       .  S
O1629      C1633   1.270       .  A
O1630     Mg1637   2.306       .  S
O1631      C1650   1.266       .  A
O1632      C1652   1.276       .  A
O1632     Mg1648   2.312       .  S
O1634     Mg1648   2.148       .  S
O1634      C1645   1.231       .  S
O1635     Mg1654   2.163       .  S
O1636     Mg1648   2.308       .  S
Mg1637     O1653   2.292       .  S
O1638     Mg1654   2.296       .  S
H1639      C1644   1.081       .  S
O1640     Mg1648   2.166   1_554  S
O1640      C1643   1.238       .  S
H1641      C1643   1.081       .  S
H1642      C1645   1.081       .  S
O1647     Mg1654   2.302       .  S
C1650      O1655   1.282       .  A
C1650      C2436   1.485       .  S
O1651      C1652   1.278   1_554  A
C1652      C2024   1.468       .  S
O1657     Mg1659   2.173       .  S
O1657     Mg4365   2.160   1_455  S
O1657      C1692   1.238       .  S
C1658      O1671   1.234       .  S
C1658      O1695   1.269   1_554  A
C1658      H1697   1.081       .  S
Mg1659     O4388   2.180   1_455  S
Mg1659     O4403   2.323   1_455  S
Mg1659     O1699   2.298       .  S
Mg1659     O1670   2.302       .  S
O1660     Mg4402   2.173       .  S
O1660     Mg1685   2.160   1_556  S
O1660      C1681   1.237       .  S
O1661      C1692   1.274       .  A
O1661     Mg1685   2.318       .  S
C1662      O1664   1.279       .  A
C1662      O1676   1.274   1_655  A
C1662      C2324   1.483       .  S
O1663      C1691   1.271       .  A
O1663     Mg1665   2.298       .  S
O1664     Mg4396   2.325       .  S
Mg1665     O4357   2.160       .  S
Mg1665     O1671   2.143       .  S
Mg1665     O1679   2.244       .  S
Mg1665     O1667   2.286       .  S
C1666      O1704   1.272       .  A
C1666      O1672   1.276       .  A
C1666      C2343   1.481       .  S
O1667      C1674   1.272       .  A
H1668      C1681   1.081       .  S
C1669      O1683   1.237       .  S
C1669      O1684   1.273       .  A
C1669      H1694   1.081       .  S
O1670      C1693   1.269   1_554  A
O1671     Mg4385   2.146       .  S
O1672     Mg4402   2.314       .  S
C1673      O1686   1.273       .  A
C1673      O1678   1.281   1_556  A
C1673      C4698   1.468       .  S
C1674      O4401   1.277       .  A
C1674      C2548   1.485       .  S
Mg1675     O1682   2.170       .  S
Mg1675     O4383   2.157   1_455  S
Mg1675     O1676   2.294       .  S
Mg1675     O1677   2.299       .  S
Mg1675     O1704   2.290       .  S
O1677      C1681   1.271       .  A
O1678     Mg4385   2.332       .  S
O1679      C1698   1.268       .  A
O1680      C1700   1.285   1_556  A
O1680     Mg4396   2.362   1_455  S
O1682     Mg4396   2.162   1_455  S
O1682      C1693   1.233       .  S
O1683     Mg4375   2.157       .  S
O1683     Mg1702   2.162       .  S
O1684     Mg1696   2.313       .  S
Mg1685     O4371   2.146   1_455  S
Mg1685     O4378   2.332       .  S
Mg1685     O1701   2.331       .  S
O1686     Mg1702   2.284       .  S
H1687      C1692   1.081       .  S
O1688     Mg4359   2.180       .  S
O1688     Mg1696   2.166   1_554  S
O1688      C1691   1.237       .  S
H1689      C1691   1.081       .  S
H1690      C1693   1.081       .  S
O1695     Mg1702   2.299       .  S
Mg1696     O4382   2.162       .  S
Mg1696     O4364   2.325       .  S
Mg1696     O4380   2.362       .  S
C1698      O1703   1.275       .  A
C1698      C2420   1.474       .  S
O1699      C1700   1.274       .  A
C1700      C4686   1.483       .  S
O1701      C4374   1.277       .  A
Mg1702     O4360   2.173       .  S
Mg1702     O4372   2.314       .  S
O1703     Mg4359   2.323       .  S
O1705     Mg1707   2.168       .  S
O1705     Mg1713   2.150       .  S
O1705      C1740   1.237       .  S
C1706      O1719   1.233       .  S
C1706      O1743   1.267       .  A
C1706      H1745   1.081       .  S
Mg1707     O1736   2.184       .  S
Mg1707     O1751   2.356       .  S
Mg1707     O1747   2.289       .  S
Mg1707     O1718   2.294       .  S
O1708     Mg1750   2.178       .  S
O1708     Mg1733   2.144       .  S
O1708      C1729   1.238       .  S
O1709      C1740   1.274       .  A
O1709     Mg1733   2.319       .  S
C1710      O1724   1.266       .  A
C1710      C2260   1.475       .  S
O1711      C1739   1.270       .  A
O1711     Mg1713   2.290       .  S
Mg1713     O1719   2.142       .  S
Mg1713     O1727   2.211       .  S
Mg1713     O1715   2.266       .  S
C1714      O1752   1.266       .  A
C1714      O1720   1.277       .  A
C1714      C2276   1.470       .  S
O1715      C1722   1.266       .  A
H1716      C1729   1.081       .  S
C1717      O1731   1.238       .  S
C1717      O1732   1.273       .  A
C1717      H1742   1.082       .  S
O1718      C1741   1.267       .  A
O1719     Mg1733   2.148       .  S
O1720     Mg1750   2.332       .  S
C1721      O1734   1.275       .  A
C1721      O1726   1.278       .  A
C1721      C2082   1.472       .  S
C1722      O1749   1.274       .  A
C1722      C2308   1.471       .  S
Mg1723     O1730   2.144       .  S
Mg1723     O1731   2.145       .  S
Mg1723     O1724   2.249       .  S
Mg1723     O1725   2.297       .  S
Mg1723     O1752   2.235       .  S
O1725      C1729   1.271       .  A
O1726     Mg1733   2.316       .  S
O1727      C1746   1.264       .  A
O1728      C1748   1.283       .  A
O1730     Mg1744   2.162       .  S
O1730      C1741   1.232       .  S
O1731     Mg1750   2.167       .  S
O1732     Mg1744   2.314       .  S
Mg1733     O1749   2.313       .  S
O1734     Mg1750   2.297       .  S
H1735      C1740   1.082       .  S
O1736     Mg1744   2.152       .  S
O1736      C1739   1.237       .  S
H1737      C1739   1.081       .  S
H1738      C1741   1.081       .  S
O1743     Mg1750   2.294       .  S
C1746      O1751   1.278       .  A
C1746      C2295   1.478       .  S
C1748      C2094   1.471       .  S
C1753      C2372   1.492       .  S
C1753      C1754   1.395       .  A
C1753      C1758   1.420       .  A
C1754      H1773   1.086       .  S
C1754      C1755   1.393       .  A
C1755      C2340   1.482       .  S
C1755      C1756   1.417       .  A
C1756      C1757   1.425       .  A
C1756      C1763   1.406       .  A
C1757      C1758   1.429       .  A
C1757      C1762   1.425       .  A
C1758      C1759   1.405       .  A
C1759      H1769   1.082       .  S
C1759      C1760   1.398       .  A
C1760      H1770   1.082       .  S
C1760      C1761   1.407       .  A
C1761      C1762   1.424       .  A
C1761      C1768   1.415       .  A
C1762      C1765   1.429       .  A
C1763      H1771   1.083       .  S
C1763      C1764   1.401       .  A
C1764      H1772   1.083       .  S
C1764      C1765   1.406       .  A
C1765      C1766   1.423       .  A
C1766      C2244   1.497       .  S
C1766      C1767   1.397       .  A
C1767      H1774   1.085       .  S
C1767      C1768   1.394       .  A
C1768      C2279   1.481       .  S
C1775      C2388   1.486       .  S
C1775      C1776   1.398       .  A
C1775      C1780   1.418       .  A
C1776      H1795   1.085       .  S
C1776      C1777   1.399       .  A
C1777      C2327   1.491       .  S
C1777      C1778   1.420       .  A
C1778      C1779   1.426       .  A
C1778      C1785   1.408       .  A
C1779      C1780   1.425       .  A
C1779      C1784   1.425       .  A
C1780      C1781   1.408       .  A
C1781      H1791   1.083   1_565  S
C1781      C1782   1.399       .  A
C1782      H1792   1.083       .  S
C1782      C1783   1.404       .  A
C1783      C1784   1.428       .  A
C1783      C1790   1.416       .  A
C1784      C1787   1.429       .  A
C1785      H1793   1.083       .  S
C1785      C1786   1.400       .  A
C1786      H1794   1.083       .  S
C1786      C1787   1.404       .  A
C1787      C1788   1.418       .  A
C1788      C2228   1.486       .  S
C1788      C1789   1.390       .  A
C1789      H1796   1.087       .  S
C1789      C1790   1.388       .  A
C1790      C2263   1.480       .  S
O1797     Mg1799   2.165       .  S
O1797     Mg1805   2.147       .  S
O1797      C1832   1.237       .  S
C1798      O1811   1.235       .  S
C1798      O1835   1.269       .  A
C1798      H1837   1.081       .  S
Mg1799     O1828   2.186       .  S
Mg1799     O1843   2.329       .  S
Mg1799     O4539   2.285       .  S
Mg1799     O1810   2.296       .  S
O1800     Mg1842   2.175       .  S
O1800     Mg1825   2.158       .  S
O1800      C1821   1.238       .  S
O1801      C1832   1.273       .  A
O1801     Mg1825   2.315       .  S
C1802      O4504   1.277       .  A
C1802      O1816   1.276       .  A
C1802      C2247   1.486       .  S
O1803      C1831   1.272       .  A
O1803     Mg1805   2.301       .  S
O1804      C4502   1.277   1_455  A
O1804     Mg4536   2.320   1_455  S
Mg1805     O1811   2.145       .  S
Mg1805     O1819   2.241       .  S
Mg1805     O1807   2.276       .  S
C1806      O1844   1.271       .  A
C1806      O1812   1.278       .  A
C1806      C2180   1.474       .  S
O1807      C1814   1.269       .  A
H1808      C1821   1.081       .  S
C1809      O1823   1.235       .  S
C1809      O1824   1.271       .  A
C1809      H1834   1.082       .  S
O1810      C1833   1.268       .  A
O1811     Mg1825   2.156       .  S
O1812     Mg1842   2.333       .  S
C1813      O1826   1.277       .  A
C1813      O1818   1.283       .  A
C1813      C2093   1.483       .  S
C1814      O1841   1.280       .  A
C1814      C2196   1.480       .  S
Mg1815     O1822   2.154       .  S
Mg1815     O1823   2.154       .  S
Mg1815     O1816   2.314       .  S
Mg1815     O1817   2.301       .  S
Mg1815     O1844   2.254       .  S
O1817      C1821   1.272       .  A
O1819      C1838   1.267       .  A
O1820      C1840   1.278       .  A
O1820     Mg4536   2.310   1_455  S
O1822     Mg1836   2.162       .  S
O1822      C1833   1.234       .  S
O1823     Mg1842   2.176       .  S
O1824     Mg1836   2.307       .  S
Mg1825     O1841   2.342       .  S
H1827      C1832   1.082       .  S
O1828     Mg1836   2.160       .  S
O1828      C1831   1.238       .  S
H1829      C1831   1.081       .  S
H1830      C1833   1.081       .  S
O1835     Mg1842   2.294       .  S
Mg1836     O4504   2.320       .  S
Mg1836     O4520   2.310       .  S
C1838      O1843   1.275       .  A
C1838      C2212   1.475       .  S
O1839      C1840   1.273       .  A
O1839     Mg4499   2.285   1_455  S
C1840      C2120   1.471       .  S
O1845     Mg1847   2.150       .  S
O1845     Mg1853   2.144       .  S
O1845      C1880   1.236       .  S
C1846      O1859   1.233       .  S
C1846      O1883   1.267       .  A
C1846      H1885   1.081       .  S
Mg1847     O1876   2.184       .  S
Mg1847     O1891   2.355       .  S
Mg1847     O1887   2.277       .  S
Mg1847     O1858   2.297       .  S
O1848     Mg1890   2.189       .  S
O1848     Mg1873   2.191       .  S
O1848      C1869   1.237       .  S
O1849      C1880   1.270       .  A
O1849     Mg1873   2.301       .  S
C1850      O1852   1.269       .  A
C1850      O1864   1.270       .  A
C1850      C2148   1.466       .  S
O1851      C1879   1.271       .  A
O1851     Mg1853   2.292       .  S
O1852     Mg1884   2.262       .  S
Mg1853     O1859   2.145       .  S
Mg1853     O1867   2.228       .  S
Mg1853     O1855   2.280       .  S
C1854      O1892   1.267       .  A
C1854      O1860   1.284       .  A
C1854      C2167   1.493       .  S
O1855      C1862   1.270       .  A
H1856      C1869   1.081       .  S
C1857      O1871   1.238       .  S
C1857      O1872   1.275       .  A
C1857      H1882   1.082       .  S
O1858      C1881   1.268       .  A
O1859     Mg1873   2.155       .  S
O1860     Mg1890   2.399       .  S
C1861      O4574   1.278       .  A
C1861      O1866   1.277       .  A
C1861      C2118   1.469       .  S
C1862      O4589   1.279       .  A
C1862      C2231   1.480       .  S
Mg1863     O1870   2.156       .  S
Mg1863     O1871   2.141       .  S
Mg1863     O1864   2.300       .  S
Mg1863     O1865   2.304       .  S
Mg1863     O1892   2.232       .  S
O1865      C1869   1.272       .  A
O1866     Mg4573   2.317   1_455  S
O1867      C1886   1.267       .  A
O1868      C1888   1.276       .  A
O1868     Mg1884   2.325       .  S
O1870     Mg1884   2.142       .  S
O1870      C1881   1.233       .  S
O1871     Mg1890   2.171       .  S
O1872     Mg1884   2.327       .  S
Mg1873     O4566   2.317       .  S
Mg1873     O4589   2.337       .  S
O1874      C4561   1.278       .  A
O1874     Mg1890   2.277       .  S
H1875      C1880   1.082       .  S
O1876     Mg1884   2.149       .  S
O1876      C1879   1.237       .  S
H1877      C1879   1.081       .  S
H1878      C1881   1.081       .  S
O1883     Mg1890   2.295       .  S
C1886      O1891   1.280       .  A
C1886      C2135   1.479       .  S
O1887      C1888   1.276       .  A
C1888      C2086   1.473       .  S
O1889      C4562   1.279   1_455  A
O1889     Mg4573   2.337   1_455  S
C1893      C2407   1.481       .  S
C1893      C1894   1.390       .  A
C1893      C1898   1.415       .  A
C1894      H1913   1.087       .  S
C1894      C1895   1.392       .  A
C1895      C2356   1.479       .  S
C1895      C1896   1.416       .  A
C1896      C1897   1.425       .  A
C1896      C1903   1.404       .  A
C1897      C1898   1.426       .  A
C1897      C1902   1.423       .  A
C1898      C1899   1.404       .  A
C1899      H1909   1.083       .  S
C1899      C1900   1.398       .  A
C1900      H1910   1.083       .  S
C1900      C1901   1.407       .  A
C1901      C1902   1.425       .  A
C1901      C1908   1.416       .  A
C1902      C1905   1.427       .  A
C1903      H1911   1.083       .  S
C1903      C1904   1.398       .  A
C1904      H1912   1.082       .  S
C1904      C1905   1.407       .  A
C1905      C1906   1.419       .  A
C1906      C2132   1.490       .  S
C1906      C1907   1.397       .  A
C1907      H1914   1.085       .  S
C1907      C1908   1.397       .  A
C1908      C2183   1.487       .  S
C1915      C2500   1.490       .  S
C1915      C1916   1.395       .  A
C1915      C1920   1.424   1_655  A
C1916      H1935   1.086       .  S
C1916      C1917   1.396       .  A
C1917      C2647   1.489       .  S
C1917      C1918   1.417       .  A
C1918      C1919   1.428   1_655  A
C1918      C1925   1.405       .  A
C1919      C1920   1.427       .  A
C1919      C4624   1.427       .  A
C1920      C1921   1.408       .  A
C1921      H1931   1.082       .  S
C1921      C4622   1.403       .  A
C1922      H1932   1.083       .  S
C1922      C4621   1.403       .  A
C1922      C1923   1.406       .  A
C1923      C1924   1.430       .  A
C1923      C1930   1.425       .  A
C1924      C4619   1.427       .  A
C1924      C1927   1.427       .  A
C1925      H1933   1.083       .  S
C1925      C4626   1.397   1_655  A
C1926      H1934   1.082       .  S
C1926      C4625   1.397       .  A
C1926      C1927   1.406       .  A
C1927      C1928   1.416       .  A
C1928      C2215   1.488       .  S
C1928      C1929   1.395       .  A
C1929      H1936   1.085       .  S
C1929      C1930   1.395       .  A
C1930      C2164   1.496       .  S
C1937      C2471   1.482       .  S
C1937      C1938   1.392       .  A
C1937      C1942   1.411       .  A
C1938      H1957   1.086       .  S
C1938      C1939   1.395       .  A
C1939      C2660   1.476       .  S
C1939      C1940   1.413       .  A
C1940      C1941   1.423       .  A
C1940      C1947   1.407       .  A
C1941      C1942   1.426       .  A
C1941      C1946   1.418       .  A
C1942      C1943   1.403       .  A
C1943      H1953   1.083       .  S
C1943      C1944   1.395       .  A
C1944      H1954   1.083       .  S
C1944      C1945   1.405       .  A
C1945      C1946   1.423       .  A
C1945      C1952   1.408       .  A
C1946      C1949   1.426       .  A
C1947      H1955   1.083       .  S
C1947      C1948   1.399       .  A
C1948      H1956   1.083       .  S
C1948      C1949   1.405       .  A
C1949      C1950   1.416       .  A
C1950      C2311   1.480       .  S
C1950      C1951   1.393       .  A
C1951      H1958   1.086       .  S
C1951      C1952   1.392       .  A
C1952      C2151   1.476       .  S
C1959      C2519   1.483       .  S
C1959      C1960   1.394       .  A
C1959      C1964   1.414       .  A
C1960      H1979   1.085       .  S
C1960      C1961   1.399       .  A
C1961      C2455   1.497       .  S
C1961      C1962   1.428       .  A
C1962      C1963   1.429       .  A
C1962      C1969   1.408       .  A
C1963      C1964   1.424       .  A
C1964      C1965   1.407       .  A
C1965      H1975   1.082       .  S
C1966      H1976   1.083       .  S
C1966      C1967   1.402       .  A
C1967      C1968   1.428       .  A
C1967      C1974   1.414       .  A
C1968      C1971   1.427       .  A
C1969      H1977   1.082       .  S
C1970      H1978   1.083       .  S
C1970      C1971   1.407       .  A
C1971      C1972   1.423       .  A
C1972      C2199   1.488       .  S
C1972      C1973   1.394       .  A
C1973      H1980   1.086       .  S
C1973      C1974   1.392       .  A
C1974      C2292   1.487       .  S
O1981     Mg1989   2.165   1_556  S
O1981      C2016   1.233       .  S
C1982      O1995   1.234       .  S
C1982      O2019   1.267       .  A
C1982      H2021   1.081       .  S
Mg1983     O2012   2.178   1_556  S
Mg1983     O2027   2.344   1_556  S
Mg1983     O2023   2.272       .  S
Mg1983     O1994   2.314       .  S
O1984     Mg2026   2.174   1_556  S
O1984     Mg2009   2.159       .  S
O1984      C2005   1.234       .  S
O1985      C4716   1.267   1_455  A
O1985     Mg2009   2.292       .  S
C1986      O1988   1.276       .  A
C1986      O4700   1.275       .  A
C1986      C4400   1.483       .  S
O1987      C2015   1.272       .  A
O1988     Mg2020   2.307       .  S
Mg1989     O4695   2.158       .  S
Mg1989     O2003   2.281       .  S
Mg1989     O1991   2.317   1_554  S
C1990      O1996   1.272       .  A
O1991      C4698   1.275       .  A
H1992      C2005   1.081       .  S
C1993      O2007   1.232       .  S
C1993      O4708   1.268       .  A
C1993      H2018   1.081       .  S
O1994      C2017   1.272       .  A
O1995     Mg4689   2.158   1_455  S
O1995     Mg2009   2.184   1_554  S
O1996     Mg2026   2.293   1_556  S
C1997      O2010   1.273       .  A
C1997      O2002   1.272   1_554  A
C1998      O4691   1.275   1_455  A
C1998      O2025   1.272       .  A
C1998      C4373   1.468       .  S
Mg1999     O4706   2.187   1_455  S
Mg1999     O2007   2.163   1_556  S
Mg1999     O2000   2.325   1_556  S
Mg1999     O2001   2.306       .  S
Mg1999     O2028   2.291       .  S
O2000      C4686   1.275       .  A
O2002     Mg2009   2.298       .  S
O2004      C2024   1.273   1_554  A
O2004     Mg2020   2.303       .  S
O2006     Mg4699   2.187       .  S
O2006     Mg2020   2.176   1_556  S
O2006      C2017   1.236       .  S
O2008      C4693   1.268       .  A
O2008     Mg2020   2.304       .  S
Mg2009     O2025   2.266       .  S
O2010     Mg2026   2.285       .  S
H2011      C2016   1.081       .  S
O2012     Mg2020   2.192       .  S
O2012      C2015   1.235       .  S
H2013      C2015   1.081       .  S
H2014      C2017   1.081       .  S
C2016      O4685   1.267       .  A
O2019     Mg2026   2.288       .  S
C2022      O2027   1.279       .  A
O2023      C2024   1.272       .  A
O2029     Mg2031   2.175       .  S
O2029     Mg2037   2.165       .  S
O2029      C2064   1.234       .  S
C2030      O2043   1.235       .  S
C2030      O2067   1.270       .  A
C2030      H2069   1.081       .  S
Mg2031     O2060   2.192       .  S
Mg2031     O2075   2.313       .  S
Mg2031     O2071   2.290       .  S
Mg2031     O2042   2.286       .  S
O2032     Mg2074   2.181       .  S
O2032     Mg2057   2.169       .  S
O2032      C2053   1.236       .  S
O2033      C2064   1.271       .  A
O2033     Mg2057   2.313       .  S
C2034      O2036   1.273       .  A
C2034      O2048   1.276       .  A
O2035      C2063   1.269       .  A
O2035     Mg2037   2.300       .  S
O2036     Mg2068   2.292       .  S
Mg2037     O2043   2.192       .  S
Mg2037     O2051   2.316       .  S
Mg2037     O2039   2.319       .  S
C2038      O2076   1.273       .  A
C2038      O2044   1.274       .  A
O2039      C2046   1.277       .  A
H2040      C2053   1.081       .  S
C2041      O2055   1.234       .  S
C2041      O2056   1.269       .  A
C2041      H2066   1.081       .  S
O2042      C2065   1.266       .  A
O2043     Mg2057   2.173       .  S
O2044     Mg2074   2.309       .  S
C2045      O2058   1.272       .  A
C2045      O2050   1.275       .  A
C2046      O2073   1.272       .  A
Mg2047     O2054   2.151       .  S
Mg2047     O2055   2.165       .  S
Mg2047     O2048   2.313       .  S
Mg2047     O2049   2.304       .  S
Mg2047     O2076   2.280       .  S
O2049      C2053   1.271       .  A
O2050     Mg2057   2.318       .  S
O2051      C2070   1.277       .  A
O2052      C2072   1.272       .  A
O2052     Mg2068   2.287       .  S
O2054     Mg2068   2.171       .  S
O2054      C2065   1.232       .  S
O2055     Mg2074   2.162       .  S
O2056     Mg2068   2.299       .  S
Mg2057     O2073   2.282       .  S
O2058     Mg2074   2.284       .  S
H2059      C2064   1.081       .  S
O2060     Mg2068   2.170       .  S
O2060      C2063   1.235       .  S
H2061      C2063   1.081       .  S
H2062      C2065   1.081       .  S
O2067     Mg2074   2.306       .  S
C2070      O2075   1.274       .  A
O2071      C2072   1.275       .  A
O2077     Mg2079   2.161       .  S
O2077     Mg2085   2.182       .  S
O2077      C2112   1.234       .  S
C2078      O2091   1.233       .  S
C2078      O2115   1.268       .  A
C2078      H2117   1.081       .  S
Mg2079     O2108   2.183       .  S
Mg2079     O2123   2.275       .  S
Mg2079     O2119   2.280       .  S
Mg2079     O2090   2.289       .  S
O2080     Mg2122   2.185       .  S
O2080     Mg2105   2.164       .  S
O2080      C2101   1.235       .  S
O2081      C2112   1.268       .  A
O2081     Mg2105   2.295       .  S
C2082      O2084   1.274       .  A
C2082      O2096   1.276       .  A
O2083      C2111   1.267       .  A
O2083     Mg2085   2.289       .  S
O2084     Mg2116   2.294       .  S
Mg2085     O2091   2.167       .  S
Mg2085     O2099   2.301       .  S
Mg2085     O2087   2.302       .  S
C2086      O2124   1.274       .  A
C2086      O2092   1.276       .  A
O2087      C2094   1.276       .  A
H2088      C2101   1.081       .  S
C2089      O2103   1.234       .  S
C2089      O2104   1.269       .  A
C2089      H2114   1.081       .  S
O2090      C2113   1.267       .  A
O2091     Mg2105   2.185       .  S
O2092     Mg2122   2.310       .  S
C2093      O2106   1.278       .  A
C2093      O2098   1.275       .  A
C2094      O2121   1.274       .  A
Mg2095     O2102   2.160       .  S
Mg2095     O2103   2.178       .  S
Mg2095     O2096   2.310       .  S
Mg2095     O2097   2.298       .  S
Mg2095     O2124   2.286       .  S
O2097      C2101   1.269       .  A
O2098     Mg2105   2.305       .  S
O2099      C2118   1.276       .  A
O2100      C2120   1.276       .  A
O2100     Mg2116   2.306       .  S
O2102     Mg2116   2.183       .  S
O2102      C2113   1.234       .  S
O2103     Mg2122   2.179       .  S
O2104     Mg2116   2.300       .  S
Mg2105     O2121   2.292       .  S
O2106     Mg2122   2.324       .  S
H2107      C2112   1.081       .  S
O2108     Mg2116   2.147       .  S
O2108      C2111   1.233       .  S
H2109      C2111   1.081       .  S
H2110      C2113   1.081       .  S
O2115     Mg2122   2.293       .  S
C2118      O2123   1.270       .  A
O2119      C2120   1.272       .  A
C2125      C2130   1.380       .  A
C2125      C2126   1.404       .  A
C2125      O2131   1.324       .  A
C2126      H2137   1.082       .  S
C2126      C2127   1.406       .  A
C2127      C2136   1.358       .  A
C2127      C2128   1.380       .  A
C2128      C2129   1.404       .  A
C2128      O2134   1.325       .  A
C2129      H2138   1.082       .  S
C2129      C2130   1.406       .  A
C2130      C2133   1.358       .  A
O2131      C2132   1.332       .  A
C2132      C2133   1.396       .  A
C2133      H2139   1.083       .  S
O2134      C2135   1.332       .  A
C2135      C2136   1.395       .  A
C2136      H2140   1.083       .  S
C2141      C2146   1.380       .  A
C2141      C2142   1.399       .  A
C2141      O2147   1.315       .  A
C2142      H2153   1.082       .  S
C2142      C2143   1.399       .  A
C2143      C2152   1.356       .  A
C2143      C2144   1.380       .  A
C2144      C2145   1.406       .  A
C2144      O2150   1.320       .  A
C2145      H2154   1.082       .  S
C2145      C2146   1.405       .  A
C2146      C2149   1.365       .  A
O2147      C2148   1.328       .  A
C2148      C2149   1.393       .  A
C2149      H2155   1.082       .  S
O2150      C2151   1.332       .  A
C2151      C2152   1.392       .  A
C2152      H2156   1.083       .  S
C2157      C2162   1.379       .  A
C2157      C2158   1.406       .  A
C2157      O2163   1.327       .  A
C2158      H2169   1.082       .  S
C2158      C2159   1.408       .  A
C2159      C2168   1.359       .  A
C2159      C2160   1.379       .  A
C2160      C2161   1.410       .  A
C2160      O2166   1.332       .  A
C2161      H4870   1.082       .  S
C2161      C2162   1.413       .  A
C2162      C2165   1.363       .  A
O2163      C2164   1.334       .  A
C2164      C2165   1.401       .  A
C2165      H4871   1.083       .  S
O2166      C2167   1.336       .  A
C2167      C2168   1.396       .  A
C2168      H2172   1.083       .  S
H2170      C4861   1.082       .  S
H2171      C4865   1.083       .  S
C2173      C2174   1.401       .  A
C2173      O2179   1.321       .  A
C2174      H2185   1.082       .  S
C2175      C2184   1.357       .  A
C2175      C2176   1.380       .  A
C2176      C2177   1.406   1_565  A
C2176      O2182   1.324       .  A
C2177      H2186   1.082       .  S
C2177      C2178   1.407       .  A
C2178      C2181   1.362       .  A
O2179      C2180   1.330       .  A
C2181      H2187   1.083       .  S
O2182      C2183   1.333       .  A
C2183      C2184   1.394       .  A
C2184      H2188   1.083       .  S
C2189      C2194   1.378       .  A
C2189      C2190   1.410       .  A
C2189      O2195   1.320       .  A
C2190      H2201   1.082       .  S
C2190      C2191   1.407       .  A
C2191      C2200   1.373       .  A
C2191      C2192   1.378       .  A
C2193      H2202   1.082       .  S
C2194      C2197   1.370       .  A
O2195      C2196   1.335       .  A
C2196      C2197   1.392       .  A
C2199      C2200   1.396       .  A
C2200      H2204   1.082       .  S
C2205      C2210   1.380       .  A
C2205      C2206   1.402       .  A
C2205      O2211   1.322       .  A
C2206      H2217   1.082       .  S
C2206      C2207   1.404       .  A
C2207      C2216   1.356       .  A
C2207      C2208   1.380       .  A
C2208      C2209   1.405       .  A
C2208      O2214   1.324       .  A
C2209      H2218   1.082       .  S
C2209      C2210   1.406       .  A
C2210      C2213   1.361       .  A
O2211      C2212   1.331       .  A
C2212      C2213   1.394       .  A
C2213      H2219   1.083       .  S
O2214      C2215   1.333       .  A
C2215      C2216   1.395       .  A
C2216      H2220   1.083       .  S
C2221      C2226   1.378       .  A
C2221      C2222   1.408   1_455  A
C2221      O2227   1.325       .  A
C2222      H4933   1.082       .  S
C2222      C2223   1.408       .  A
C2223      C4932   1.364       .  A
C2223      C2224   1.379   1_655  A
C2224      C2225   1.405       .  A
C2224      O2230   1.325       .  A
C2225      H2234   1.082       .  S
C2225      C2226   1.407       .  A
C2226      C2229   1.360       .  A
O2227      C2228   1.335       .  A
C2228      C2229   1.399       .  A
C2229      H2235   1.083       .  S
O2230      C4931   1.333   1_455  A
C2231      C2232   1.395       .  A
C2231      O4930   1.333       .  A
C2232      H2236   1.083       .  S
C2232      C4923   1.364       .  A
H2233      C4922   1.082       .  S
C2237      C2242   1.379       .  A
C2237      C4938   1.408       .  A
C2237      O2243   1.326       .  A
C2238      H2249   1.082       .  S
C2238      C4937   1.408       .  A
C2238      C2239   1.408       .  A
C2239      C2248   1.365       .  A
C2239      C4940   1.379       .  A
C2240      C4939   1.379       .  A
C2240      C2241   1.407       .  A
C2240      O2246   1.326       .  A
C2241      H2250   1.082       .  S
C2241      C2242   1.409       .  A
C2242      C2245   1.362       .  A
O2243      C2244   1.334       .  A
C2244      C2245   1.399       .  A
C2245      H2251   1.083       .  S
O2246      C4947   1.334       .  A
C2247      C2248   1.395       .  A
C2247      O4946   1.334       .  A
C2248      H2252   1.082       .  S
C2253      C2258   1.378   1_545  A
C2253      C2254   1.405       .  A
C2253      O2259   1.315       .  A
C2254      H2265   1.082       .  S
C2254      C2255   1.402   1_545  A
C2255      C2264   1.367       .  A
C2255      C2256   1.378       .  A
C2256      C2257   1.410       .  A
C2256      O2262   1.317       .  A
C2257      H2266   1.082       .  S
C2257      C2258   1.405       .  A
C2258      C2261   1.373       .  A
C2261      H2267   1.082       .  S
O2262      C2263   1.336       .  A
C2263      C2264   1.393       .  A
C2264      H2268   1.083   1_565  S
C2269      C2274   1.380       .  A
C2269      C2270   1.406       .  A
C2269      O2275   1.317       .  A
C2270      H2281   1.083       .  S
C2270      C2271   1.404       .  A
C2271      C2280   1.369       .  A
C2271      C2272   1.380       .  A
C2272      C2273   1.404       .  A
C2272      O2278   1.315       .  A
C2273      H2282   1.082       .  S
C2273      C2274   1.401       .  A
C2274      C2277   1.366       .  A
O2275      C2276   1.332       .  A
C2276      C2277   1.390       .  A
C2277      H2283   1.082       .  S
O2278      C2279   1.332       .  A
C2279      C2280   1.393       .  A
C2280      H2284   1.083       .  S
C2285      C2290   1.380       .  A
C2285      C2286   1.404       .  A
C2285      O2291   1.324       .  A
C2286      H2297   1.083       .  S
C2286      C2287   1.406       .  A
C2287      C2296   1.357       .  A
C2287      C2288   1.380       .  A
C2288      O2294   1.326       .  A
C2289      H2298   1.082       .  S
O2291      C2292   1.332       .  A
C2293      H2299   1.083       .  S
O2294      C2295   1.332       .  A
C2295      C2296   1.395       .  A
C2296      H2300   1.083       .  S
C2301      C2306   1.379       .  A
C2301      C2302   1.405       .  A
C2301      O2307   1.317       .  A
C2302      H2313   1.082       .  S
C2302      C2303   1.404       .  A
C2303      C2312   1.367       .  A
C2303      C2304   1.379       .  A
C2304      C2305   1.406       .  A
C2304      O2310   1.316       .  A
C2305      H2314   1.082       .  S
C2305      C2306   1.402       .  A
C2306      C2309   1.368       .  A
O2307      C2308   1.332       .  A
C2308      C2309   1.391       .  A
C2309      H2315   1.082       .  S
O2310      C2311   1.334       .  A
C2311      C2312   1.393       .  A
C2312      H2316   1.083       .  S
C2317      C2322   1.380       .  A
C2317      C2318   1.406       .  A
C2317      O5023   1.325   1_455  A
C2318      H5029   1.082       .  S
C2318      C2319   1.408       .  A
C2319      C2328   1.363       .  A
C2319      C2320   1.380       .  A
C2320      C2321   1.406       .  A
C2320      O2326   1.324       .  A
C2321      H2330   1.082       .  S
C2321      C2322   1.406       .  A
C2322      C2325   1.362       .  A
O2323      C5017   1.325       .  A
O2323      C5024   1.333       .  A
C2324      C2325   1.395   1_655  A
C2324      O5023   1.333       .  A
C2325      H2331   1.083       .  S
O2326      C2327   1.333       .  A
C2327      C2328   1.397       .  A
C2328      H2332   1.083       .  S
H2329      C5018   1.082       .  S
C2333      C2338   1.379       .  A
C2333      C2334   1.404       .  A
C2333      O2339   1.317       .  A
C2334      H2345   1.082       .  S
C2334      C2335   1.402       .  A
C2335      C2344   1.363       .  A
C2335      C2336   1.379       .  A
C2336      C2337   1.409       .  A
C2336      O2342   1.324       .  A
C2337      H2346   1.082       .  S
C2337      C2338   1.409       .  A
C2338      C2341   1.369       .  A
O2339      C2340   1.333       .  A
C2340      C2341   1.395       .  A
C2341      H2347   1.082       .  S
O2342      C2343   1.335       .  A
C2343      C2344   1.393       .  A
C2344      H2348   1.083       .  S
C2349      C2354   1.379       .  A
C2349      C2350   1.404       .  A
C2349      O2355   1.315       .  A
C2350      H2361   1.082       .  S
C2350      C2351   1.401       .  A
C2351      C2360   1.364       .  A
C2351      C2352   1.379       .  A
C2352      C2353   1.406       .  A
C2352      O2358   1.320       .  A
C2353      H2362   1.082       .  S
C2353      C2354   1.405       .  A
C2354      C2357   1.367       .  A
O2355      C2356   1.333       .  A
C2356      C2357   1.394       .  A
C2357      H2363   1.083       .  S
O2358      C2359   1.332       .  A
C2359      C2360   1.391       .  A
C2360      H2364   1.082       .  S
C2365      C2370   1.380       .  A
C2365      C2366   1.404       .  A
C2365      O2371   1.326       .  A
C2366      H2377   1.082       .  S
C2366      C2367   1.406       .  A
C2367      C2376   1.358       .  A
C2367      C2368   1.380       .  A
C2368      C2369   1.405       .  A
C2368      O2374   1.327       .  A
C2369      H2378   1.082       .  S
C2369      C2370   1.408       .  A
C2370      C2373   1.359       .  A
O2371      C2372   1.333       .  A
C2372      C2373   1.397       .  A
C2373      H2379   1.083       .  S
O2374      C2375   1.333       .  A
C2375      C2376   1.395       .  A
C2376      H2380   1.083       .  S
C2381      C2386   1.381       .  A
C2381      C2382   1.404       .  A
C2381      O2387   1.323   1_545  A
C2382      H2393   1.082   1_545  S
C2382      C2383   1.405       .  A
C2383      C2392   1.360       .  A
C2383      C2384   1.381       .  A
C2384      C2385   1.404       .  A
C2385      C2386   1.406       .  A
C2386      C2389   1.360       .  A
O2387      C2388   1.332       .  A
C2388      C2389   1.394   1_565  A
C2389      H2395   1.083       .  S
C2391      C2392   1.394       .  A
C2392      H2396   1.083       .  S
C2397      C2402   1.379       .  A
C2397      C2398   1.406       .  A
C2397      O2403   1.326       .  A
C2398      C2399   1.408       .  A
C2399      C2408   1.362       .  A
C2399      C2400   1.379       .  A
C2400      C2401   1.403       .  A
C2400      O2406   1.321       .  A
C2401      H2410   1.082       .  S
C2401      C2402   1.403       .  A
C2402      C2405   1.356       .  A
O2403      C2404   1.333       .  A
C2404      C2405   1.394       .  A
C2405      H2411   1.083       .  S
O2406      C2407   1.332       .  A
C2407      C2408   1.397       .  A
C2408      H2412   1.083       .  S
C2413      C2418   1.380       .  A
C2413      C2414   1.403       .  A
C2413      O2419   1.321       .  A
C2414      H5125   1.082       .  S
C2414      C2415   1.404       .  A
C2415      C2424   1.359       .  A
C2415      C2416   1.380       .  A
C2416      C2417   1.405       .  A
C2416      O2422   1.321       .  A
C2417      H2426   1.082       .  S
C2417      C2418   1.405       .  A
C2418      C2421   1.362       .  A
O2419      C2420   1.331       .  A
C2420      C2421   1.393       .  A
C2421      H2427   1.083       .  S
O2422      C2423   1.332       .  A
C2423      C2424   1.394       .  A
C2424      H2428   1.083       .  S
H2425      C5114   1.082       .  S
C2429      C2434   1.378       .  A
C2429      C2430   1.410       .  A
C2429      O2435   1.320       .  A
C2430      H2441   1.082       .  S
C2430      C2431   1.407       .  A
C2431      C2440   1.373       .  A
C2431      C2432   1.378       .  A
C2432      C2433   1.409       .  A
C2432      O2438   1.318       .  A
C2433      H2442   1.082       .  S
C2433      C2434   1.405       .  A
C2434      C2437   1.373       .  A
O2435      C2436   1.336       .  A
C2436      C2437   1.394       .  A
C2437      H2443   1.082       .  S
O2438      C2439   1.336       .  A
C2439      C2440   1.395       .  A
C2440      H2444   1.082       .  S
C2445      C2450   1.378       .  A
C2445      C2446   1.410   1_545  A
C2445      O2451   1.321   1_545  A
C2446      H2457   1.082       .  S
C2446      C2447   1.407   1_565  A
C2447      C2456   1.373       .  A
C2447      C2448   1.378       .  A
C2448      C2449   1.410       .  A
C2448      O2454   1.319       .  A
C2449      H2458   1.082       .  S
C2449      C2450   1.407       .  A
C2450      C2453   1.373       .  A
O2451      C2452   1.335   1_565  A
C2452      C2453   1.395       .  A
C2453      H2459   1.082       .  S
O2454      C2455   1.337       .  A
C2455      C2456   1.396       .  A
C2456      H2460   1.082   1_545  S
C2461      C2466   1.380       .  A
C2461      C2462   1.401       .  A
C2461      O2467   1.317       .  A
C2462      H2473   1.082       .  S
C2462      C2463   1.401       .  A
C2463      C2472   1.358       .  A
C2463      C2464   1.379       .  A
C2464      C2465   1.409       .  A
C2464      O2470   1.323       .  A
C2465      H2474   1.082       .  S
C2465      C2466   1.407       .  A
C2466      C2469   1.368       .  A
O2467      C2468   1.330       .  A
C2468      C2469   1.394       .  A
C2469      H2475   1.082       .  S
O2470      C2471   1.334       .  A
C2471      C2472   1.393       .  A
C2472      H2476   1.083       .  S
C2477      C2482   1.379       .  A
C2477      C2478   1.409       .  A
C2477      O2483   1.318       .  A
C2478      H2489   1.082       .  S
C2478      C2479   1.406       .  A
C2479      C2488   1.373       .  A
C2479      C2480   1.378       .  A
C2480      C2481   1.408       .  A
C2480      O2486   1.316       .  A
C2481      H2490   1.082       .  S
C2481      C2482   1.404       .  A
C2482      C2485   1.371       .  A
O2483      C2484   1.334       .  A
C2484      C2485   1.393       .  A
C2485      H2491   1.082       .  S
O2486      C2487   1.335       .  A
C2487      C2488   1.396       .  A
C2488      H2492   1.082       .  S
C2493      C2498   1.378   1_655  A
C2493      C2494   1.409       .  A
C2493      O2499   1.319       .  A
C2494      H5205   1.082       .  S
C2494      C2495   1.406   1_655  A
C2495      C2504   1.371   1_455  A
C2495      C2496   1.379       .  A
C2496      C2497   1.408       .  A
C2496      O2502   1.319       .  A
C2497      H2506   1.082       .  S
C2497      C2498   1.406       .  A
C2498      C2501   1.370       .  A
O2499      C2500   1.336       .  A
C2500      C2501   1.394   1_655  A
C2501      H2507   1.082       .  S
O2502      C2503   1.334       .  A
C2503      C2504   1.394   1_455  A
C2504      H2508   1.082       .  S
H2505      C5194   1.082       .  S
C2509      C2514   1.380   1_565  A
C2509      C2510   1.404       .  A
C2509      O2515   1.318       .  A
C2510      H2521   1.082       .  S
C2510      C2511   1.403   1_565  A
C2511      C2520   1.364       .  A
C2511      C2512   1.380       .  A
C2512      C2513   1.404       .  A
C2512      O2518   1.317       .  A
C2513      C2514   1.402       .  A
C2514      C2517   1.364       .  A
O2515      C2516   1.332       .  A
C2516      C2517   1.391   1_565  A
C2517      H2523   1.083       .  S
O2518      C2519   1.332       .  A
C2519      C2520   1.392       .  A
C2520      H2524   1.083   1_545  S
C2525      C5230   1.381       .  A
C2525      C2526   1.403       .  A
C2525      O5231   1.321       .  A
C2526      H2537   1.082       .  S
C2526      C2527   1.404       .  A
C2527      C2536   1.361       .  A
C2527      C2528   1.381       .  A
C2528      C2529   1.404       .  A
C2528      O2534   1.321       .  A
C2529      H2538   1.082       .  S
C2529      C5230   1.404       .  A
C2530      C5225   1.381   1_455  A
C2530      C5229   1.404       .  A
C2530      C2533   1.361       .  A
O2531      C5225   1.321   1_455  A
O2531      C2532   1.331       .  A
C2532      C2533   1.393       .  A
C2533      H2539   1.083       .  S
O2534      C2535   1.331       .  A
C2535      C2536   1.393       .  A
C2536      H2540   1.083       .  S
C2541      C2546   1.380       .  A
C2541      C2542   1.407       .  A
C2541      O5247   1.327       .  A
C2542      H5253   1.082       .  S
C2542      C2543   1.409       .  A
C2543      C2552   1.362       .  A
C2543      C2544   1.380       .  A
C2544      C2545   1.405       .  A
C2544      O2550   1.325       .  A
C2545      H2554   1.082       .  S
C2545      C2546   1.407       .  A
C2546      C2549   1.361       .  A
O2547      C5241   1.327       .  A
O2547      C5248   1.334       .  A
C2548      C2549   1.395       .  A
C2548      O5247   1.334       .  A
C2549      H2555   1.083       .  S
O2550      C2551   1.333       .  A
C2551      C2552   1.398       .  A
C2552      H2556   1.083       .  S
H2553      C5242   1.082       .  S
C2557      C2562   1.380       .  A
C2557      C2558   1.403       .  A
C2557      O2563   1.317       .  A
C2558      H2569   1.082       .  S
C2558      C2559   1.402       .  A
C2559      C2568   1.362       .  A
C2559      C2560   1.381       .  A
C2560      C2561   1.404       .  A
C2560      O2566   1.319       .  A
C2561      H2570   1.082       .  S
C2561      C2562   1.403       .  A
C2562      C2565   1.364       .  A
O2563      C2564   1.332       .  A
C2564      C2565   1.392       .  A
C2565      H2571   1.083       .  S
O2566      C2567   1.331       .  A
C2567      C2568   1.391       .  A
C2568      H2572   1.083       .  S
C2573      C2578   1.379       .  A
C2573      C2574   1.407       .  A
C2573      O2579   1.325       .  A
C2574      H2585   1.082       .  S
C2574      C2575   1.407       .  A
C2575      C2576   1.380       .  A
C2576      C2577   1.402       .  A
C2576      O2582   1.322       .  A
C2577      H2586   1.082       .  S
C2577      C2578   1.404       .  A
C2578      C2581   1.357       .  A
O2579      C2580   1.334       .  A
C2580      C2581   1.396       .  A
C2581      H2587   1.083       .  S
C2583      C2584   1.395       .  A
C2584      H2588   1.083       .  S
C2589      C2594   1.382       .  A
C2589      C2590   1.403       .  A
C2589      O2595   1.313       .  A
C2590      H2601   1.082       .  S
C2590      C2591   1.399       .  A
C2591      C2600   1.363       .  A
C2591      C2592   1.379       .  A
C2592      C2593   1.400       .  A
C2592      O2598   1.314       .  A
C2593      H2602   1.083       .  S
C2593      C2594   1.400       .  A
C2594      C2597   1.361       .  A
O2595      C2596   1.331       .  A
C2596      C2597   1.391       .  A
C2597      H2603   1.083       .  S
O2598      C2599   1.329       .  A
C2599      C2600   1.390       .  A
C2600      H2604   1.082       .  S
C2605      C2610   1.379       .  A
C2605      C2606   1.409       .  A
C2605      O2611   1.328       .  A
C2606      H2617   1.082       .  S
C2606      C2607   1.411       .  A
C2607      C2616   1.365       .  A
C2607      C2608   1.378       .  A
C2608      C2609   1.407       .  A
C2608      O2614   1.326       .  A
C2609      H2618   1.082       .  S
C2609      C2610   1.408       .  A
C2610      C2613   1.364       .  A
O2611      C2612   1.335       .  A
C2612      C2613   1.396       .  A
C2613      H2619   1.083       .  S
O2614      C2615   1.334       .  A
C2615      C2616   1.400       .  A
C2616      H2620   1.083       .  S
C2621      C2626   1.379       .  A
C2621      C2622   1.402       .  A
C2622      H2633   1.082       .  S
C2622      C2623   1.403       .  A
C2623      C2632   1.359       .  A
C2623      C2624   1.379       .  A
C2624      C2625   1.406       .  A
C2624      O2630   1.321       .  A
C2625      H2634   1.082       .  S
C2625      C2626   1.406       .  A
C2626      C2629   1.363       .  A
O2627      C2628   1.331       .  A
C2629      H2635   1.083       .  S
O2630      C2631   1.333       .  A
C2631      C2632   1.394       .  A
C2632      H2636   1.083       .  S
C2637      C2642   1.381   1_655  A
C2637      C2638   1.403       .  A
C2637      O2643   1.323       .  A
C2638      H5349   1.082       .  S
C2638      C2639   1.405       .  A
C2639      C2648   1.359       .  A
C2639      C2640   1.380       .  A
C2640      C2641   1.406   1_655  A
C2640      O2646   1.325   1_655  A
C2641      H2650   1.083       .  S
C2641      C2642   1.407       .  A
C2642      C2645   1.361       .  A
O2643      C2644   1.331   1_655  A
C2644      C2645   1.395       .  A
C2645      H2651   1.083       .  S
O2646      C2647   1.333   1_455  A
C2647      C2648   1.395       .  A
C2648      H5352   1.083       .  S
H2649      C5338   1.082       .  S
H2652      C5348   1.083       .  S
C2653      C2658   1.381       .  A
C2653      C2654   1.401       .  A
C2653      O2659   1.318       .  A
C2654      H2665   1.082       .  S
C2654      C2655   1.400       .  A
C2655      C2664   1.355       .  A
C2655      C2656   1.380       .  A
C2656      C2657   1.403       .  A
C2656      O2662   1.323       .  A
C2657      H2666   1.082       .  S
C2657      C2658   1.406       .  A
C2658      C2661   1.358       .  A
O2659      C2660   1.330       .  A
C2660      C2661   1.396       .  A
C2661      H2667   1.083       .  S
O2662      C2663   1.331       .  A
C2663      C2664   1.390       .  A
C2664      H2668   1.083       .  S
C2669      C2674   1.378       .  A
C2669      C5370   1.409       .  A
C2669      O2675   1.318       .  A
C2670      H2681   1.082       .  S
C2670      C5369   1.409       .  A
C2670      C2671   1.405       .  A
C2671      C2680   1.372       .  A
C2671      C5372   1.378   1_655  A
C2672      C5371   1.378       .  A
C2672      C2673   1.403       .  A
C2672      O2678   1.314       .  A
C2673      H2682   1.082       .  S
C2673      C2674   1.401       .  A
C2674      C2677   1.364       .  A
O2675      C2676   1.336       .  A
C2676      C2677   1.393       .  A
C2677      H2683   1.083       .  S
O2678      C5379   1.331       .  A
C2679      C2680   1.393   1_455  A
C2679      O5378   1.331       .  A
C2680      H2684   1.082       .  S
C2685      C2690   1.380       .  A
C2685      C2686   1.406       .  A
C2685      O2691   1.323       .  A
C2686      H2697   1.082       .  S
C2686      C2687   1.406       .  A
C2687      C2696   1.365       .  A
C2687      C2688   1.380       .  A
C2688      C2689   1.403       .  A
C2688      O2694   1.320       .  A
C2689      H2698   1.083       .  S
C2689      C2690   1.403       .  A
C2690      C2693   1.360       .  A
O2691      C2692   1.332       .  A
C2692      C2693   1.394       .  A
C2693      H2699   1.083       .  S
O2694      C2695   1.331       .  A
C2695      C2696   1.394       .  A
C2696      H2700   1.083       .  S
O2701     Mg2703   2.170       .  S
O2701     Mg2709   2.152       .  S
O2701      C2736   1.238       .  S
C2702      O2715   1.233       .  S
C2702      O2739   1.267       .  A
C2702      H2741   1.081       .  S
Mg2703     O2732   2.162       .  S
Mg2703     O2747   2.343       .  S
Mg2703     O2743   2.297       .  S
Mg2703     O2714   2.306       .  S
O2704     Mg2746   2.160       .  S
O2704     Mg2729   2.139       .  S
O2704      C2725   1.238       .  S
O2705      C2736   1.274       .  A
O2705     Mg2729   2.319       .  S
C2706      O2708   1.278       .  A
C2706      O2720   1.265       .  A
C2706      C4029   1.469       .  S
O2707      C2735   1.270       .  A
O2707     Mg2709   2.292       .  S
O2708     Mg2740   2.340       .  S
Mg2709     O2715   2.140       .  S
Mg2709     O2723   2.229       .  S
Mg2709     O2711   2.249       .  S
C2710      O2748   1.270       .  A
C2710      O2716   1.272       .  A
C2710      C4045   1.475       .  S
O2711      C2718   1.266       .  A
H2712      C2725   1.081       .  S
C2713      O2727   1.238       .  S
C2713      O2728   1.274       .  A
C2713      H2738   1.082       .  S
O2714      C2737   1.269       .  A
O2715     Mg2729   2.149       .  S
O2716     Mg2746   2.304       .  S
C2717      O2730   1.273       .  A
C2717      O2722   1.279       .  A
C2717      C3388   1.469       .  S
C2718      O2745   1.273       .  A
C2718      C4013   1.466       .  S
Mg2719     O2726   2.168       .  S
Mg2719     O2727   2.143       .  S
Mg2719     O2720   2.237       .  S
Mg2719     O2721   2.301       .  S
Mg2719     O2748   2.271       .  S
O2721      C2725   1.272       .  A
O2722     Mg2729   2.326       .  S
O2723      C2742   1.266       .  A
O2724      C2744   1.286       .  A
O2726     Mg2740   2.167       .  S
O2726      C2737   1.234       .  S
O2727     Mg2746   2.167       .  S
O2728     Mg2740   2.320       .  S
Mg2729     O2745   2.305       .  S
O2730     Mg2746   2.287       .  S
H2731      C2736   1.082       .  S
O2732     Mg2740   2.151       .  S
O2732      C2735   1.237       .  S
H2733      C2735   1.081       .  S
H2734      C2737   1.081       .  S
O2739     Mg2746   2.294       .  S
C2742      O2747   1.277       .  A
C2742      C3994   1.477       .  S
C2744      C3420   1.482       .  S
C2749      C4042   1.486       .  S
C2749      C2750   1.395       .  A
C2749      C2754   1.415       .  A
C2750      H2769   1.085       .  S
C2750      C2751   1.398       .  A
C2751      C3981   1.480       .  S
C2751      C2752   1.416       .  A
C2752      C2753   1.421       .  A
C2752      C2759   1.408       .  A
C2753      C2754   1.427       .  A
C2753      C2758   1.421       .  A
C2754      C2755   1.404       .  A
C2755      H2765   1.082       .  S
C2755      C2756   1.394       .  A
C2756      H2766   1.083       .  S
C2756      C2757   1.405       .  A
C2757      C2758   1.421       .  A
C2757      C2764   1.407       .  A
C2758      C2761   1.429       .  A
C2759      H2767   1.083       .  S
C2759      C2760   1.402       .  A
C2760      H2768   1.083       .  S
C2760      C2761   1.404       .  A
C2761      C2762   1.422       .  A
C2762      C3965   1.492       .  S
C2762      C2763   1.392       .  A
C2763      H2770   1.086       .  S
C2763      C2764   1.394       .  A
C2764      C3946   1.471       .  S
C2771      C3930   1.487       .  S
C2771      C2772   1.390       .  A
C2771      C2776   1.415       .  A
C2772      H2791   1.087       .  S
C2772      C2773   1.391       .  A
C2773      C4026   1.477       .  S
C2773      C2774   1.415       .  A
C2774      C2775   1.424       .  A
C2774      C2781   1.405       .  A
C2775      C2776   1.429       .  A
C2775      C2780   1.424       .  A
C2776      C2777   1.402       .  A
C2777      H2787   1.083       .  S
C2777      C2778   1.395       .  A
C2778      H2788   1.082       .  S
C2778      C2779   1.407       .  A
C2779      C2780   1.422       .  A
C2779      C2786   1.413       .  A
C2780      C2783   1.428       .  A
C2781      H2789   1.083   1_655  S
C2781      C2782   1.401       .  A
C2782      H2790   1.082   1_655  S
C2782      C2783   1.408       .  A
C2783      C2784   1.424       .  A
C2784      C3901   1.495       .  S
C2784      C2785   1.400       .  A
C2785      H2792   1.085       .  S
C2785      C2786   1.396       .  A
C2786      C3914   1.481       .  S
O2793     Mg2795   2.161       .  S
O2793     Mg2801   2.153       .  S
O2793      C2828   1.238       .  S
C2794      O2807   1.233       .  S
C2794      O2831   1.267       .  A
C2794      H2833   1.081       .  S
Mg2795     O2824   2.174       .  S
Mg2795     O2839   2.362       .  S
Mg2795     O2806   2.294       .  S
O2796     Mg2838   2.177       .  S
O2796     Mg2821   2.156       .  S
O2796      C2817   1.238       .  S
O2797      C2828   1.273       .  A
O2797     Mg2821   2.312       .  S
C2798      O2800   1.273       .  A
C2798      O2812   1.273       .  A
C2798      C3882   1.473       .  S
O2799      C2827   1.269       .  A
O2799     Mg2801   2.292       .  S
O2800     Mg2832   2.283       .  S
Mg2801     O2807   2.149       .  S
Mg2801     O2815   2.252       .  S
Mg2801     O2803   2.289       .  S
C2802      O2840   1.270       .  A
C2802      O2808   1.279       .  A
C2802      C3978   1.475       .  S
O2803      C2810   1.272       .  A
H2804      C2817   1.081       .  S
C2805      O2819   1.236       .  S
C2805      O2820   1.271       .  A
C2805      H2830   1.081       .  S
O2806      C2829   1.268       .  A
O2807     Mg2821   2.153       .  S
O2808     Mg2838   2.336       .  S
C2809      O2822   1.277       .  A
C2809      O2814   1.277       .  A
C2809      C3395   1.477       .  S
C2810      O2837   1.273       .  A
C2810      C3866   1.471       .  S
Mg2811     O2818   2.147       .  S
Mg2811     O2819   2.153       .  S
Mg2811     O2812   2.293       .  S
Mg2811     O2813   2.297       .  S
Mg2811     O2840   2.250       .  S
O2813      C2817   1.271       .  A
O2814     Mg4171   2.334   1_545  S
O2815      C2834   1.270       .  A
O2816      C2836   1.275       .  A
O2818     Mg2832   2.160       .  S
O2818      C2829   1.235       .  S
O2819     Mg2838   2.153       .  S
O2820     Mg2832   2.302       .  S
Mg2821     O4164   2.334       .  S
Mg2821     O2837   2.280       .  S
O2822     Mg4188   2.289   1_545  S
H2823      C2828   1.081       .  S
O2824     Mg2832   2.153       .  S
O2824      C2827   1.236       .  S
H2825      C2827   1.081       .  S
H2826      C2829   1.081       .  S
O2831     Mg2838   2.289       .  S
C2834      O2839   1.282       .  A
C2834      C3853   1.482       .  S
O2835      C2836   1.277       .  A
C2836      C3422   1.469       .  S
Mg2838     O4172   2.289       .  S
O2841     Mg2843   2.157       .  S
O2841     Mg2849   2.151       .  S
O2841      C2876   1.237       .  S
C2842      O2855   1.234       .  S
C2842      O2879   1.269       .  A
C2842      H2881   1.081       .  S
Mg2843     O2872   2.168       .  S
Mg2843     O2887   2.364       .  S
Mg2843     O2883   2.273       .  S
Mg2843     O2854   2.307       .  S
O2844     Mg2886   2.172       .  S
O2844     Mg2869   2.175       .  S
O2844      C2865   1.236       .  S
O2845      C2876   1.272       .  A
O2845     Mg2869   2.307       .  S
C2846      O2848   1.271       .  A
C2846      O2860   1.274       .  A
C2846      C3818   1.473       .  S
O2847      C2875   1.270       .  A
O2847     Mg2849   2.298       .  S
O2848     Mg2880   2.269       .  S
Mg2849     O2855   2.147       .  S
Mg2849     O2863   2.230       .  S
Mg2849     O2851   2.275       .  S
C2850      O2888   1.271       .  A
C2850      O2856   1.283       .  A
C2850      C3802   1.487       .  S
O2851      C2858   1.269       .  A
H2852      C2865   1.081       .  S
C2853      O2867   1.237       .  S
C2853      O2868   1.274       .  A
C2853      H2878   1.082       .  S
O2854      C2877   1.270       .  A
O2855     Mg2869   2.153       .  S
O2856     Mg2886   2.373       .  S
C2857      O4220   1.279       .  A
C2857      O2862   1.275       .  A
C2857      C3396   1.471       .  S
C2858      O2885   1.275       .  A
C2858      C3933   1.476       .  S
Mg2859     O2866   2.171       .  S
Mg2859     O2867   2.154       .  S
Mg2859     O2860   2.319       .  S
Mg2859     O2861   2.304       .  S
Mg2859     O2888   2.260       .  S
O2861      C2865   1.271       .  A
O2862     Mg4219   2.317   1_545  S
O2863      C2882   1.266       .  A
O2864      C2884   1.277       .  A
O2864     Mg2880   2.338       .  S
O2866     Mg2880   2.149       .  S
O2866      C2877   1.234       .  S
O2867     Mg2886   2.178       .  S
O2868     Mg2880   2.318       .  S
Mg2869     O4212   2.317       .  S
Mg2869     O2885   2.313       .  S
O2870      C4207   1.279       .  A
O2870     Mg2886   2.298       .  S
H2871      C2876   1.082       .  S
O2872     Mg2880   2.162       .  S
O2872      C2875   1.236       .  S
H2873      C2875   1.081       .  S
H2874      C2877   1.081       .  S
O2879     Mg2886   2.298       .  S
C2882      O2887   1.280       .  A
C2882      C3834   1.480       .  S
O2883      C2884   1.275       .  A
C2884      C3384   1.472       .  S
C2889      C3885   1.482       .  S
C2889      C2890   1.393       .  A
C2889      C2894   1.411       .  A
C2890      H2909   1.086       .  S
C2890      C2891   1.398       .  A
C2891      C3837   1.491       .  S
C2891      C2892   1.427       .  A
C2892      C2893   1.428       .  A
C2892      C2899   1.408       .  A
C2893      C2894   1.425       .  A
C2893      C2898   1.425       .  A
C2894      C2895   1.405       .  A
C2895      H2905   1.083       .  S
C2895      C2896   1.393       .  A
C2896      H2906   1.083       .  S
C2896      C2897   1.403       .  A
C2897      C2898   1.426       .  A
C2897      C2904   1.411       .  A
C2898      C2901   1.428       .  A
C2899      H2907   1.081       .  S
C2899      C2900   1.405       .  A
C2900      H2908   1.082       .  S
C2900      C2901   1.406       .  A
C2901      C2902   1.425       .  A
C2902      C3789   1.490       .  S
C2902      C2903   1.394       .  A
C2903      H2910   1.087       .  S
C2903      C2904   1.391       .  A
C2904      C3773   1.480       .  S
O2911     Mg2913   2.164       .  S
O2911     Mg4269   2.161   1_545  S
O2911      C2946   1.239       .  S
C2912      O2925   1.234       .  S
C2912      O2949   1.268   1_556  A
C2912      H2951   1.081       .  S
Mg2913     O4292   2.172   1_545  S
Mg2913     O4307   2.362   1_545  S
Mg2913     O2953   2.290       .  S
Mg2913     O2924   2.298   1_556  S
O2914     Mg4306   2.173   1_545  S
O2914     Mg2939   2.160   1_554  S
O2914      C2935   1.237       .  S
O2915      C2946   1.274       .  A
O2915     Mg2939   2.311       .  S
C2916      O4268   1.273       .  A
C2916      O2930   1.274       .  A
C2916      C3917   1.470       .  S
O2917      C2945   1.268       .  A
O2917     Mg2919   2.284       .  S
O2918      C4266   1.273       .  A
O2918     Mg2950   2.269       .  S
Mg2919     O4261   2.161       .  S
Mg2919     O2925   2.130       .  S
Mg2919     O2933   2.209       .  S
Mg2919     O2921   2.270       .  S
C2920      O2958   1.273       .  A
C2920      O2926   1.283       .  A
C2920      C3962   1.490       .  S
O2921      C2928   1.269       .  A
H2922      C2935   1.081       .  S
C2923      O2937   1.239       .  S
C2923      O2938   1.274       .  A
C2923      H2948   1.081       .  S
O2924      C2947   1.268       .  A
O2925     Mg4289   2.143       .  S
O2926     Mg4306   2.376   1_545  S
C2927      O2940   1.280       .  A
C2927      O2932   1.274   1_554  A
C2927      C4690   1.468   1_554  S
C2928      O2955   1.273       .  A
C2928      C3741   1.477       .  S
Mg2929     O2936   2.162       .  S
Mg2929     O4287   2.151   1_545  S
Mg2929     O2930   2.301   1_545  S
Mg2929     O2931   2.296       .  S
Mg2929     O2958   2.270       .  S
O2931      C2935   1.271       .  A
O2932     Mg4289   2.305       .  S
O2933      C2952   1.265       .  A
O2934      C2954   1.280       .  A
O2934     Mg4300   2.350       .  S
O2936     Mg4300   2.155   1_545  S
O2936      C2947   1.233       .  S
O2937     Mg4279   2.151       .  S
O2937     Mg2956   2.166       .  S
O2938     Mg2950   2.312       .  S
Mg2939     O4275   2.143   1_545  S
Mg2939     O4282   2.305       .  S
Mg2939     O4305   2.301       .  S
O2940     Mg2956   2.300       .  S
H2941      C2946   1.081       .  S
O2942     Mg4263   2.172       .  S
O2942     Mg2950   2.144   1_556  S
O2942      C2945   1.235       .  S
H2943      C2945   1.081       .  S
H2944      C2947   1.081       .  S
O2949     Mg2956   2.294       .  S
Mg2950     O4286   2.155       .  S
Mg2950     O4284   2.350       .  S
C2952      O2957   1.280       .  A
C2952      C3754   1.478       .  S
O2953      C2954   1.278   1_546  A
C2954      C4722   1.478       .  S
O2955     Mg4289   2.301       .  S
Mg2956     O4264   2.173       .  S
Mg2956     O4276   2.376       .  S
O2957     Mg4263   2.362       .  S
O2959     Mg2961   2.151       .  S
O2959     Mg2967   2.134       .  S
O2959      C2994   1.238       .  S
C2960      O2973   1.233       .  S
C2960      O2997   1.268   1_554  A
C2960      H2999   1.081       .  S
Mg2961     O2990   2.187       .  S
Mg2961     O3005   2.377       .  S
Mg2961     O3001   2.282       .  S
Mg2961     O2972   2.288   1_554  S
O2962     Mg3004   2.184       .  S
O2962     Mg2987   2.153   1_556  S
O2962      C2983   1.237       .  S
O2963      C2994   1.275       .  A
O2963     Mg2987   2.330       .  S
C2964      O2966   1.274       .  A
C2964      O2978   1.271       .  A
C2964      C3709   1.471       .  S
O2965      C2993   1.272       .  A
O2965     Mg2967   2.298       .  S
O2966     Mg2998   2.296       .  S
Mg2967     O2973   2.162       .  S
Mg2967     O2981   2.233       .  S
Mg2967     O2969   2.259       .  S
C2968      O3006   1.268       .  A
C2968      O2974   1.281       .  A
C2968      C3725   1.482       .  S
O2969      C2976   1.261       .  A
H2970      C2983   1.081       .  S
C2971      O2985   1.238       .  S
C2971      O2986   1.272       .  A
C2971      H2996   1.082       .  S
O2972      C2995   1.265       .  A
O2973     Mg2987   2.143       .  S
O2974     Mg3004   2.367       .  S
C2975      O2988   1.279   1_554  A
C2975      O2980   1.274       .  A
C2975      C3347   1.472       .  S
C2976      O3003   1.268       .  A
C2976      C3949   1.461       .  S
Mg2977     O2984   2.142       .  S
Mg2977     O2985   2.149       .  S
Mg2977     O2978   2.290       .  S
Mg2977     O2979   2.294       .  S
Mg2977     O3006   2.226       .  S
O2979      C2983   1.270       .  A
O2980     Mg2987   2.306       .  S
O2981      C3000   1.266       .  A
O2982      C3002   1.276       .  A
O2982     Mg2998   2.312       .  S
O2984     Mg2998   2.148       .  S
O2984      C2995   1.231       .  S
O2985     Mg3004   2.163       .  S
O2986     Mg2998   2.308       .  S
Mg2987     O3003   2.292       .  S
O2988     Mg3004   2.296       .  S
H2989      C2994   1.081       .  S
O2990     Mg2998   2.166   1_554  S
O2990      C2993   1.238       .  S
H2991      C2993   1.081       .  S
H2992      C2995   1.081       .  S
O2997     Mg3004   2.302       .  S
C3000      O3005   1.282       .  A
C3000      C3786   1.485       .  S
O3001      C3002   1.278   1_554  A
C3002      C3374   1.468       .  S
O3007     Mg3009   2.173       .  S
O3007      C3042   1.238       .  S
C3008      O3021   1.234       .  S
C3008      O3045   1.269   1_554  A
C3008      H3047   1.081       .  S
Mg3009     O3049   2.298       .  S
Mg3009     O3020   2.302       .  S
O3010     Mg3035   2.160   1_556  S
O3010      C3031   1.237       .  S
O3011      C3042   1.274       .  A
O3011     Mg3035   2.318       .  S
C3012      O3014   1.279       .  A
C3012      O3026   1.274       .  A
C3012      C3674   1.483       .  S
O3013      C3041   1.271       .  A
O3013     Mg3015   2.298       .  S
Mg3015     O3021   2.143       .  S
Mg3015     O3029   2.244       .  S
Mg3015     O3017   2.286   1_655  S
C3016      O3054   1.272       .  A
C3016      O3022   1.276       .  A
C3016      C3693   1.481       .  S
O3017      C3024   1.272       .  A
H3018      C3031   1.081       .  S
C3019      O3033   1.237       .  S
C3019      O3034   1.273       .  A
C3019      H3044   1.081       .  S
O3020      C3043   1.269   1_554  A
C3023      O3036   1.273       .  A
C3023      O3028   1.281   1_556  A
C3024      C3898   1.485       .  S
Mg3025     O3032   2.170       .  S
Mg3025     O3026   2.294       .  S
Mg3025     O3027   2.299       .  S
Mg3025     O3054   2.290       .  S
O3027      C3031   1.271       .  A
O3029      C3048   1.268       .  A
O3030      C3050   1.285   1_556  A
O3032      C3043   1.233       .  S
O3033     Mg3052   2.162   1_655  S
O3034     Mg3046   2.313       .  S
Mg3035     O3051   2.331       .  S
O3036     Mg3052   2.284       .  S
H3037      C3042   1.081       .  S
O3038     Mg3046   2.166   1_554  S
O3038      C3041   1.237       .  S
H3039      C3041   1.081       .  S
H3040      C3043   1.081       .  S
O3045     Mg3052   2.299   1_655  S
C3048      O3053   1.275       .  A
C3048      C3770   1.474       .  S
O3049      C3050   1.274       .  A
O3055     Mg3057   2.168       .  S
O3055     Mg3063   2.150       .  S
O3055      C3090   1.237       .  S
C3056      O3069   1.233       .  S
C3056      O3093   1.267       .  A
C3056      H3095   1.081       .  S
Mg3057     O3086   2.184       .  S
Mg3057     O3101   2.356   1_545  S
Mg3057     O3097   2.289   1_545  S
Mg3057     O3068   2.294       .  S
O3058     Mg3100   2.178       .  S
O3058     Mg3083   2.144       .  S
O3058      C3079   1.238       .  S
O3059      C3090   1.274       .  A
O3059     Mg3083   2.319       .  S
C3060      O4412   1.279   1_545  A
C3060      O3074   1.266       .  A
C3060      C3610   1.475       .  S
O3061      C3089   1.270       .  A
O3061     Mg3063   2.290       .  S
O3062      C4410   1.279       .  A
O3062     Mg4444   2.344       .  S
Mg3063     O3069   2.142       .  S
Mg3063     O3077   2.211       .  S
Mg3063     O3065   2.266       .  S
C3064      O3102   1.266       .  A
C3064      O3070   1.277       .  A
C3064      C3626   1.470       .  S
O3065      C3072   1.266       .  A
H3066      C3079   1.081       .  S
C3067      O3081   1.238       .  S
C3067      O3082   1.273       .  A
C3067      H3092   1.082       .  S
O3068      C3091   1.267       .  A
O3069     Mg3083   2.148       .  S
O3070     Mg3100   2.332       .  S
C3071      O3084   1.275       .  A
C3071      O3076   1.278       .  A
C3071      C3432   1.472       .  S
C3072      O3099   1.274       .  A
C3072      C3658   1.471       .  S
Mg3073     O3080   2.144       .  S
Mg3073     O3081   2.145       .  S
Mg3073     O3074   2.249       .  S
Mg3073     O3075   2.297       .  S
Mg3073     O3102   2.235       .  S
O3075      C3079   1.271       .  A
O3076     Mg3083   2.316       .  S
O3077      C3096   1.264       .  A
O3078      C3098   1.283       .  A
O3078     Mg4444   2.334       .  S
O3080     Mg3094   2.162       .  S
O3080      C3091   1.232       .  S
O3081     Mg3100   2.167       .  S
O3082     Mg3094   2.314       .  S
Mg3083     O3099   2.313       .  S
O3084     Mg3100   2.297       .  S
H3085      C3090   1.082       .  S
O3086     Mg3094   2.152       .  S
O3086      C3089   1.237       .  S
H3087      C3089   1.081   1_565  S
H3088      C3091   1.081       .  S
O3093     Mg3100   2.294       .  S
Mg3094     O4412   2.344   1_545  S
Mg3094     O4428   2.334   1_545  S
C3096      O3101   1.278   1_545  A
C3096      C3645   1.478       .  S
O3097      C4448   1.276       .  A
C3098      O4447   1.276       .  A
C3098      C3444   1.471       .  S
C3103      C3722   1.492       .  S
C3103      C3104   1.395       .  A
C3103      C3108   1.420       .  A
C3104      H3123   1.086       .  S
C3104      C3105   1.393       .  A
C3105      C3690   1.482       .  S
C3105      C3106   1.417       .  A
C3106      C3107   1.425       .  A
C3106      C3113   1.406       .  A
C3107      C3108   1.429       .  A
C3107      C3112   1.425       .  A
C3108      C3109   1.405       .  A
C3109      H3119   1.082       .  S
C3109      C3110   1.398       .  A
C3110      H3120   1.082       .  S
C3110      C3111   1.407       .  A
C3111      C3112   1.424       .  A
C3111      C3118   1.415       .  A
C3112      C3115   1.429       .  A
C3113      H3121   1.083       .  S
C3113      C3114   1.401       .  A
C3114      H3122   1.083       .  S
C3114      C3115   1.406       .  A
C3115      C3116   1.423       .  A
C3116      C3594   1.497       .  S
C3116      C3117   1.397       .  A
C3117      H3124   1.085       .  S
C3117      C3118   1.394       .  A
C3118      C3629   1.481       .  S
C3125      C3738   1.486       .  S
C3125      C3126   1.398       .  A
C3125      C3130   1.418       .  A
C3126      H3145   1.085       .  S
C3126      C3127   1.399       .  A
C3127      C3677   1.491       .  S
C3127      C3128   1.420       .  A
C3128      C3129   1.426       .  A
C3128      C3135   1.408       .  A
C3129      C3130   1.425       .  A
C3129      C3134   1.425       .  A
C3130      C3131   1.408       .  A
C3131      H3141   1.083       .  S
C3131      C3132   1.399       .  A
C3132      H3142   1.083       .  S
C3132      C3133   1.404       .  A
C3133      C3134   1.428       .  A
C3133      C3140   1.416       .  A
C3134      C3137   1.429       .  A
C3135      H3143   1.083       .  S
C3135      C3136   1.400       .  A
C3136      H3144   1.083       .  S
C3136      C3137   1.404       .  A
C3137      C3138   1.418       .  A
C3138      C3578   1.486       .  S
C3138      C3139   1.390       .  A
C3139      H3146   1.087       .  S
C3139      C3140   1.388       .  A
C3140      C3613   1.480       .  S
O3147     Mg3149   2.165       .  S
O3147     Mg3155   2.147       .  S
O3147      C3182   1.237       .  S
C3148      O3161   1.235       .  S
C3148      O3185   1.269   1_545  A
C3148      H3187   1.081   1_545  S
Mg3149     O3178   2.186       .  S
Mg3149     O3193   2.329       .  S
Mg3149     O3160   2.296       .  S
O3150     Mg3192   2.175       .  S
O3150     Mg3175   2.158       .  S
O3150      C3171   1.238       .  S
O3151      C3182   1.273       .  A
O3151     Mg3175   2.315       .  S
C3152      O3166   1.276       .  A
C3152      C3597   1.486   1_655  S
O3153      C3181   1.272       .  A
O3153     Mg3155   2.301       .  S
Mg3155     O3161   2.145       .  S
Mg3155     O3169   2.241       .  S
Mg3155     O3157   2.276       .  S
C3156      O3194   1.271       .  A
C3156      O3162   1.278       .  A
C3156      C3530   1.474       .  S
O3157      C3164   1.269       .  A
H3158      C3171   1.081       .  S
C3159      O3173   1.235       .  S
C3159      O3174   1.271       .  A
C3159      H3184   1.082       .  S
O3160      C3183   1.268       .  A
O3161     Mg3175   2.156       .  S
O3162     Mg3192   2.333       .  S
C3163      O3176   1.277       .  A
C3163      O3168   1.283       .  A
C3163      C3443   1.483       .  S
C3164      O3191   1.280       .  A
C3164      C3546   1.480       .  S
Mg3165     O3172   2.154       .  S
Mg3165     O3173   2.154       .  S
Mg3165     O3166   2.314       .  S
Mg3165     O3167   2.301       .  S
Mg3165     O3194   2.254       .  S
O3167      C3171   1.272       .  A
O3168     Mg4525   2.342       .  S
O3169      C3188   1.267       .  A
O3170      C3190   1.278       .  A
O3172     Mg3186   2.162       .  S
O3172      C3183   1.234       .  S
O3173     Mg3192   2.176       .  S
O3174     Mg3186   2.307       .  S
Mg3175     O4518   2.342   1_545  S
Mg3175     O3191   2.342       .  S
O3176     Mg4542   2.313       .  S
H3177      C3182   1.082       .  S
O3178     Mg3186   2.160       .  S
O3178      C3181   1.238       .  S
H3179      C3181   1.081   1_455  S
H3180      C3183   1.081       .  S
O3185     Mg3192   2.294   1_565  S
C3188      O3193   1.275       .  A
C3188      C3562   1.475       .  S
O3189      C3190   1.273       .  A
C3190      C3470   1.471       .  S
Mg3192     O4526   2.313   1_545  S
O3195     Mg3197   2.150       .  S
O3195     Mg3203   2.144       .  S
O3195      C3230   1.236       .  S
C3196      O3209   1.233       .  S
C3196      O3233   1.267       .  A
C3196      H3235   1.081       .  S
Mg3197     O3226   2.184       .  S
Mg3197     O3241   2.355       .  S
Mg3197     O3237   2.277       .  S
Mg3197     O3208   2.297       .  S
O3198     Mg3240   2.189       .  S
O3198     Mg3223   2.191       .  S
O3198      C3219   1.237       .  S
O3199      C3230   1.270       .  A
O3199     Mg3223   2.301       .  S
C3200      O3202   1.269       .  A
C3200      O3214   1.270       .  A
C3200      C3498   1.466       .  S
O3201      C3229   1.271       .  A
O3201     Mg3203   2.292       .  S
O3202     Mg3234   2.262       .  S
Mg3203     O3209   2.145       .  S
Mg3203     O3217   2.228       .  S
Mg3203     O3205   2.280       .  S
C3204      O3242   1.267       .  A
C3204      O3210   1.284       .  A
C3204      C3517   1.493       .  S
O3205      C3212   1.270       .  A
H3206      C3219   1.081   1_455  S
C3207      O3221   1.238       .  S
C3207      O3222   1.275       .  A
C3207      H3232   1.082       .  S
O3208      C3231   1.268       .  A
O3209     Mg3223   2.155       .  S
O3210     Mg3240   2.399       .  S
C3211      O3216   1.277       .  A
C3211      C3468   1.469       .  S
C3212      C3581   1.480       .  S
Mg3213     O3220   2.156       .  S
Mg3213     O3221   2.141       .  S
Mg3213     O3214   2.300       .  S
Mg3213     O3215   2.304       .  S
Mg3213     O3242   2.232       .  S
O3215      C3219   1.272       .  A
O3217      C3236   1.267       .  A
O3218      C3238   1.276       .  A
O3218     Mg3234   2.325       .  S
O3220     Mg3234   2.142       .  S
O3220      C3231   1.233       .  S
O3221     Mg3240   2.171       .  S
O3222     Mg3234   2.327       .  S
O3224     Mg3240   2.277   1_455  S
H3225      C3230   1.082       .  S
O3226     Mg3234   2.149       .  S
O3226      C3229   1.237       .  S
H3227      C3229   1.081       .  S
H3228      C3231   1.081       .  S
O3233     Mg3240   2.295       .  S
C3236      O3241   1.280       .  A
C3236      C3485   1.479       .  S
O3237      C3238   1.276       .  A
C3238      C3436   1.473       .  S
C3243      C3757   1.481       .  S
C3243      C3244   1.390       .  A
C3243      C3248   1.415       .  A
C3244      H3263   1.087       .  S
C3244      C3245   1.392       .  A
C3245      C3706   1.479       .  S
C3245      C3246   1.416       .  A
C3246      C3247   1.425       .  A
C3246      C3253   1.404       .  A
C3247      C3248   1.426       .  A
C3247      C3252   1.423       .  A
C3248      C3249   1.404       .  A
C3249      H3259   1.083       .  S
C3249      C3250   1.398       .  A
C3250      H3260   1.083       .  S
C3250      C3251   1.407       .  A
C3251      C3252   1.425       .  A
C3251      C3258   1.416       .  A
C3252      C3255   1.427       .  A
C3253      H3261   1.083       .  S
C3253      C3254   1.398       .  A
C3254      H3262   1.082       .  S
C3254      C3255   1.407       .  A
C3255      C3256   1.419       .  A
C3256      C3482   1.490       .  S
C3256      C3257   1.397       .  A
C3257      H3264   1.085       .  S
C3257      C3258   1.397       .  A
C3258      C3533   1.487       .  S
C3265      C3850   1.490       .  S
C3265      C3266   1.395       .  A
C3265      C3270   1.424       .  A
C3266      H3285   1.086       .  S
C3266      C3267   1.396       .  A
C3267      C3997   1.489       .  S
C3267      C3268   1.417       .  A
C3268      C3269   1.428       .  A
C3268      C3275   1.405       .  A
C3269      C3270   1.427       .  A
C3270      C3271   1.408       .  A
C3271      H3281   1.082       .  S
C3272      H3282   1.083       .  S
C3272      C3273   1.406       .  A
C3273      C3274   1.430       .  A
C3273      C3280   1.425       .  A
C3274      C3277   1.427       .  A
C3275      H3283   1.083       .  S
C3276      H3284   1.082       .  S
C3276      C3277   1.406       .  A
C3277      C3278   1.416       .  A
C3278      C3565   1.488       .  S
C3278      C3279   1.395       .  A
C3279      H3286   1.085       .  S
C3279      C3280   1.395       .  A
C3280      C3514   1.496       .  S
C3287      C3821   1.482       .  S
C3287      C3288   1.392       .  A
C3287      C3292   1.411       .  A
C3288      H3307   1.086       .  S
C3288      C3289   1.395       .  A
C3289      C4010   1.476       .  S
C3289      C3290   1.413       .  A
C3290      C3291   1.423       .  A
C3290      C3297   1.407       .  A
C3291      C3292   1.426       .  A
C3291      C3296   1.418       .  A
C3292      C3293   1.403       .  A
C3293      H3303   1.083       .  S
C3293      C3294   1.395       .  A
C3294      H3304   1.083       .  S
C3294      C3295   1.405       .  A
C3295      C3296   1.423       .  A
C3295      C3302   1.408       .  A
C3296      C3299   1.426       .  A
C3297      H3305   1.083       .  S
C3297      C3298   1.399       .  A
C3298      H3306   1.083       .  S
C3298      C3299   1.405       .  A
C3299      C3300   1.416       .  A
C3300      C3661   1.480       .  S
C3300      C3301   1.393       .  A
C3301      H3308   1.086       .  S
C3301      C3302   1.392       .  A
C3302      C3501   1.476       .  S
C3309      C3869   1.483       .  S
C3309      C3310   1.394       .  A
C3309      C3314   1.414       .  A
C3310      H3329   1.085       .  S
C3310      C3311   1.399       .  A
C3311      C3805   1.497       .  S
C3311      C3312   1.428       .  A
C3312      C3313   1.429       .  A
C3312      C3319   1.408       .  A
C3313      C3314   1.424       .  A
C3313      C4668   1.427       .  A
C3314      C3315   1.407       .  A
C3315      H3325   1.082       .  S
C3315      C4666   1.393       .  A
C3316      H3326   1.083       .  S
C3316      C4665   1.393       .  A
C3316      C3317   1.402       .  A
C3317      C3318   1.428       .  A
C3317      C3324   1.414       .  A
C3318      C4663   1.427       .  A
C3318      C3321   1.427       .  A
C3319      H3327   1.082       .  S
C3319      C4670   1.404       .  A
C3320      H3328   1.083       .  S
C3320      C4669   1.404       .  A
C3320      C3321   1.407       .  A
C3321      C3322   1.423       .  A
C3322      C3549   1.488       .  S
C3322      C3323   1.394       .  A
C3323      H3330   1.086   1_545  S
C3323      C3324   1.392       .  A
C3324      C3642   1.487   1_545  S
O3331     Mg4683   2.159   1_545  S
O3331     Mg3339   2.165   1_556  S
O3331      C3366   1.233       .  S
C3332      O3345   1.234       .  S
C3332      O3369   1.267       .  A
C3332      H3371   1.081       .  S
Mg3333     O4681   2.159       .  S
Mg3333     O3362   2.178   1_556  S
Mg3333     O3377   2.344   1_556  S
Mg3333     O3373   2.272       .  S
Mg3333     O3344   2.314       .  S
O3334     Mg3376   2.174   1_556  S
O3334     Mg3359   2.159       .  S
O3334      C3355   1.234       .  S
O3335     Mg3359   2.292       .  S
C3336      O3338   1.276   1_455  A
O3337      C3365   1.272       .  A
O3337     Mg4689   2.314       .  S
O3338     Mg3370   2.307       .  S
Mg3339     O4687   2.314   1_545  S
Mg3339     O3353   2.281       .  S
Mg3339     O3341   2.317   1_554  S
C3340      O4728   1.273   1_545  A
C3340      O3346   1.272       .  A
C3340      C4277   1.468   1_556  S
H3342      C3355   1.081       .  S
C3343      O3357   1.232       .  S
C3343      H3368   1.081       .  S
O3344      C3367   1.272       .  A
O3345     Mg3359   2.184   1_554  S
O3346     Mg3376   2.293   1_556  S
C3347      O3360   1.273       .  A
C3347      O3352   1.272   1_554  A
C3348      O3375   1.272       .  A
Mg3349     O3357   2.163   1_556  S
Mg3349     O3350   2.325   1_556  S
Mg3349     O3351   2.306       .  S
Mg3349     O3378   2.292       .  S
O3351      C4705   1.269       .  A
O3352     Mg3359   2.298       .  S
O3353      C4722   1.272   1_545  A
O3354      C3374   1.273   1_554  A
O3354     Mg3370   2.303       .  S
C3355      O4701   1.269   1_545  A
O3356     Mg3370   2.176   1_556  S
O3356      C3367   1.236       .  S
O3357     Mg4726   2.178       .  S
O3358     Mg3370   2.304   1_455  S
Mg3359     O3375   2.266       .  S
O3360     Mg3376   2.285       .  S
H3361      C3366   1.081       .  S
O3362     Mg3370   2.192       .  S
O3362      C3365   1.235       .  S
H3363      C3365   1.081       .  S
H3364      C3367   1.081       .  S
O3369     Mg3376   2.288       .  S
C3372      O4703   1.272       .  A
C3372      O3377   1.279       .  A
C3372      C4304   1.478       .  S
O3373      C3374   1.272       .  A
Mg3376     O4707   2.178   1_545  S
O3378      C4690   1.273       .  A
O3379     Mg3381   2.175       .  S
O3379     Mg3387   2.165       .  S
O3379      C3414   1.234       .  S
C3380      O3393   1.235       .  S
C3380      O3417   1.270       .  A
C3380      H3419   1.081       .  S
Mg3381     O3410   2.192       .  S
Mg3381     O3425   2.313       .  S
Mg3381     O3421   2.290       .  S
Mg3381     O3392   2.286       .  S
O3382     Mg3424   2.181       .  S
O3382     Mg3407   2.169       .  S
O3382      C3403   1.236       .  S
O3383      C3414   1.271       .  A
O3383     Mg3407   2.313       .  S
C3384      O3386   1.273       .  A
C3384      O3398   1.276       .  A
O3385      C3413   1.269       .  A
O3385     Mg3387   2.300       .  S
O3386     Mg3418   2.292       .  S
Mg3387     O3393   2.192       .  S
Mg3387     O3401   2.316       .  S
Mg3387     O3389   2.319       .  S
C3388      O3426   1.273       .  A
C3388      O3394   1.274       .  A
O3389      C3396   1.277       .  A
H3390      C3403   1.081       .  S
C3391      O3405   1.234       .  S
C3391      O3406   1.269       .  A
C3391      H3416   1.081       .  S
O3392      C3415   1.266       .  A
O3393     Mg3407   2.173       .  S
O3394     Mg3424   2.309       .  S
C3395      O3408   1.272       .  A
C3395      O3400   1.275       .  A
C3396      O3423   1.272       .  A
Mg3397     O3404   2.151       .  S
Mg3397     O3405   2.165       .  S
Mg3397     O3398   2.313       .  S
Mg3397     O3399   2.304       .  S
Mg3397     O3426   2.280       .  S
O3399      C3403   1.271       .  A
O3400     Mg3407   2.319       .  S
O3401      C3420   1.277       .  A
O3402      C3422   1.272       .  A
O3402     Mg3418   2.287       .  S
O3404     Mg3418   2.171       .  S
O3404      C3415   1.232       .  S
O3405     Mg3424   2.162       .  S
O3406     Mg3418   2.299       .  S
Mg3407     O3423   2.282       .  S
O3408     Mg3424   2.284       .  S
H3409      C3414   1.081       .  S
O3410     Mg3418   2.170       .  S
O3410      C3413   1.235       .  S
H3411      C3413   1.081       .  S
H3412      C3415   1.081       .  S
O3417     Mg3424   2.306       .  S
C3420      O3425   1.274       .  A
O3421      C3422   1.275       .  A
O3427     Mg3429   2.161       .  S
O3427     Mg3435   2.182       .  S
O3427      C3462   1.234       .  S
C3428      O3441   1.233       .  S
C3428      O3465   1.268       .  A
C3428      H3467   1.081       .  S
Mg3429     O3458   2.183       .  S
Mg3429     O3473   2.275       .  S
Mg3429     O3469   2.280       .  S
Mg3429     O3440   2.289       .  S
O3430     Mg3472   2.185       .  S
O3430     Mg3455   2.164       .  S
O3430      C3451   1.235       .  S
O3431      C3462   1.268       .  A
O3431     Mg3455   2.295       .  S
C3432      O3434   1.274       .  A
C3432      O3446   1.276       .  A
O3433      C3461   1.267       .  A
O3433     Mg3435   2.289       .  S
O3434     Mg3466   2.294       .  S
Mg3435     O3441   2.167       .  S
Mg3435     O3449   2.301       .  S
Mg3435     O3437   2.302       .  S
C3436      O3474   1.274       .  A
C3436      O3442   1.276       .  A
O3437      C3444   1.276       .  A
H3438      C3451   1.081       .  S
C3439      O3453   1.234       .  S
C3439      O3454   1.269       .  A
C3439      H3464   1.081       .  S
O3440      C3463   1.267       .  A
O3441     Mg3455   2.185       .  S
O3442     Mg3472   2.310       .  S
C3443      O3456   1.278       .  A
C3443      O3448   1.275       .  A
C3444      O3471   1.274       .  A
Mg3445     O3452   2.160       .  S
Mg3445     O3453   2.178       .  S
Mg3445     O3446   2.310       .  S
Mg3445     O3447   2.298       .  S
Mg3445     O3474   2.286       .  S
O3447      C3451   1.269       .  A
O3448     Mg3455   2.305       .  S
O3449      C3468   1.276       .  A
O3450      C3470   1.276       .  A
O3450     Mg3466   2.306       .  S
O3452     Mg3466   2.183       .  S
O3452      C3463   1.234       .  S
O3453     Mg3472   2.179       .  S
O3454     Mg3466   2.300       .  S
Mg3455     O3471   2.292       .  S
O3456     Mg3472   2.324       .  S
H3457      C3462   1.081       .  S
O3458     Mg3466   2.147       .  S
O3458      C3461   1.233       .  S
H3459      C3461   1.081       .  S
H3460      C3463   1.081       .  S
O3465     Mg3472   2.293       .  S
C3468      O3473   1.270       .  A
O3469      C3470   1.272       .  A
C3475      C3480   1.380       .  A
C3475      C3476   1.404       .  A
C3475      O3481   1.324       .  A
C3476      H3487   1.082       .  S
C3476      C3477   1.406       .  A
C3477      C3486   1.358       .  A
C3477      C3478   1.380       .  A
C3478      C3479   1.404       .  A
C3478      O3484   1.325       .  A
C3479      H3488   1.082       .  S
C3479      C3480   1.406       .  A
C3480      C3483   1.358       .  A
O3481      C3482   1.332       .  A
C3482      C3483   1.396       .  A
C3483      H3489   1.083       .  S
O3484      C3485   1.332       .  A
C3485      C3486   1.395       .  A
C3486      H3490   1.083       .  S
C3491      C3496   1.380       .  A
C3491      C3492   1.399       .  A
C3491      O3497   1.315       .  A
C3492      H3503   1.082       .  S
C3492      C3493   1.399       .  A
C3493      C3502   1.356       .  A
C3493      C3494   1.380       .  A
C3494      C3495   1.406       .  A
C3494      O3500   1.320       .  A
C3495      H3504   1.082       .  S
C3495      C3496   1.405       .  A
C3496      C3499   1.365       .  A
O3497      C3498   1.328       .  A
C3498      C3499   1.393       .  A
C3499      H3505   1.082       .  S
O3500      C3501   1.332       .  A
C3501      C3502   1.392       .  A
C3502      H3506   1.083       .  S
C3507      C3512   1.379       .  A
C3507      C3508   1.406   1_455  A
C3507      O3513   1.327   1_455  A
C3508      H3519   1.082       .  S
C3508      C3509   1.408       .  A
C3509      C3518   1.359       .  A
C3509      C3510   1.379   1_655  A
C3510      C3511   1.410       .  A
C3510      O3516   1.332       .  A
C3511      C3512   1.413       .  A
C3512      C3515   1.363       .  A
O3513      C3514   1.334   1_655  A
C3514      C3515   1.401       .  A
O3516      C3517   1.336   1_455  A
C3517      C3518   1.396       .  A
C3518      H3522   1.083       .  S
C3523      C4878   1.381       .  A
C3523      C3524   1.401   1_545  A
C3523      O3529   1.321       .  A
C3524      H3535   1.082       .  S
C3524      C4875   1.403       .  A
C3525      C4874   1.403       .  A
C3525      C3534   1.357       .  A
C3525      C3526   1.380       .  A
C3526      C3527   1.406       .  A
C3526      O3532   1.324       .  A
C3527      H3536   1.082       .  S
C3527      C3528   1.407       .  A
C3528      C4873   1.381       .  A
C3528      C3531   1.362       .  A
O3529      C3530   1.330       .  A
C3530      C4881   1.394       .  A
C3531      H3537   1.083       .  S
C3531      C4880   1.394       .  A
O3532      C3533   1.333       .  A
C3533      C3534   1.394       .  A
C3534      H3538   1.083       .  S
C3539      C3544   1.378       .  A
C3539      C3540   1.410       .  A
C3539      O3545   1.320       .  A
C3540      H3551   1.082       .  S
C3540      C3541   1.407       .  A
C3541      C3550   1.373       .  A
C3541      C3542   1.378   1_545  A
C3542      C4893   1.407       .  A
C3542      O4898   1.316       .  A
C3543      H3552   1.082       .  S
C3543      C4892   1.407       .  A
C3543      C4894   1.403       .  A
C3544      C4893   1.403   1_545  A
C3544      C3547   1.370   1_545  A
O3545      C3546   1.335       .  A
C3546      C3547   1.392   1_545  A
C3547      H4903   1.082       .  S
O3548      C4892   1.316       .  A
O3548      C4899   1.335       .  A
C3549      C3550   1.396       .  A
C3549      O4898   1.335   1_545  A
C3550      H3554   1.082       .  S
H3553      C4897   1.082       .  S
C3555      C3560   1.380   1_455  A
C3555      C3556   1.402       .  A
C3555      O3561   1.322       .  A
C3556      H3567   1.082       .  S
C3556      C3557   1.404       .  A
C3557      C3566   1.356       .  A
C3557      C3558   1.380   1_455  A
C3558      C3559   1.405       .  A
C3558      O3564   1.324       .  A
C3559      H3568   1.082       .  S
C3559      C3560   1.406       .  A
C3560      C3563   1.361       .  A
O3561      C3562   1.331   1_455  A
C3562      C3563   1.394       .  A
C3563      H3569   1.083       .  S
O3564      C3565   1.333   1_655  A
C3565      C3566   1.395       .  A
C3566      H3570   1.083       .  S
C3571      C3576   1.378       .  A
C3571      C3572   1.408       .  A
C3571      O3577   1.325       .  A
C3572      C3573   1.408       .  A
C3573      C3574   1.379       .  A
C3574      C3575   1.405       .  A
C3574      O3580   1.325       .  A
C3575      H3584   1.082       .  S
C3575      C3576   1.407       .  A
C3576      C3579   1.360       .  A
O3577      C3578   1.335       .  A
C3578      C3579   1.399       .  A
C3579      H3585   1.083       .  S
C3581      C3582   1.395       .  A
C3582      H3586   1.083       .  S
C3587      C3592   1.379       .  A
C3587      O3593   1.326       .  A
C3588      H3599   1.082       .  S
C3588      C3589   1.408       .  A
C3589      C3598   1.365   1_455  A
C3590      C3591   1.407       .  A
C3590      O3596   1.326       .  A
C3591      H3600   1.082       .  S
C3591      C3592   1.409       .  A
C3592      C3595   1.362       .  A
O3593      C3594   1.334       .  A
C3594      C3595   1.399       .  A
C3595      H3601   1.083       .  S
C3597      C3598   1.395   1_455  A
C3598      H3602   1.082       .  S
C3603      C3608   1.378       .  A
C3603      C3604   1.405       .  A
C3603      O3609   1.315       .  A
C3604      H3615   1.082       .  S
C3604      C3605   1.402       .  A
C3605      C3614   1.367       .  A
C3605      C3606   1.378       .  A
C3606      C3607   1.410       .  A
C3606      O3612   1.317       .  A
C3607      H3616   1.082       .  S
C3607      C3608   1.405       .  A
C3608      C3611   1.373       .  A
O3609      C4960   1.332       .  A
C3610      C4961   1.394   1_545  A
C3610      O4959   1.332       .  A
C3611      H3617   1.082       .  S
C3611      C4960   1.394       .  A
O3612      C3613   1.336       .  A
C3613      C3614   1.393       .  A
C3614      H3618   1.083       .  S
C3619      C3624   1.380       .  A
C3619      C3620   1.406       .  A
C3619      O3625   1.317       .  A
C3620      H3631   1.083       .  S
C3620      C3621   1.404       .  A
C3621      C3630   1.369       .  A
C3621      C3622   1.380       .  A
C3622      C3623   1.404       .  A
C3622      O3628   1.315       .  A
C3623      H3632   1.082       .  S
C3623      C3624   1.401       .  A
C3624      C3627   1.366       .  A
O3625      C3626   1.332       .  A
C3626      C3627   1.390       .  A
C3627      H3633   1.082       .  S
O3628      C3629   1.332       .  A
C3629      C3630   1.393       .  A
C3630      H3634   1.083       .  S
C3635      C3640   1.380   1_545  A
C3635      C3636   1.404       .  A
C3635      O3641   1.324       .  A
C3636      H3647   1.083       .  S
C3636      C3637   1.406       .  A
C3637      C3646   1.357       .  A
C3637      C3638   1.380   1_545  A
C3638      C4989   1.403       .  A
C3638      O3644   1.326       .  A
C3639      H3648   1.082       .  S
C3639      C4988   1.403       .  A
C3639      C4990   1.406       .  A
C3640      C4989   1.406       .  A
C3640      C4993   1.358       .  A
O3641      C3642   1.332   1_545  A
C3642      C4993   1.395       .  A
C3643      H3649   1.083       .  S
C3643      C4990   1.358       .  A
C3643      C4992   1.395       .  A
O3644      C3645   1.332   1_565  A
C3645      C3646   1.395       .  A
C3646      H3650   1.083       .  S
C3651      C3656   1.379       .  A
C3651      C3652   1.405       .  A
C3651      O3657   1.317       .  A
C3652      H3663   1.082       .  S
C3652      C3653   1.404       .  A
C3653      C3662   1.367       .  A
C3653      C3654   1.379       .  A
C3654      C3655   1.406       .  A
C3654      O3660   1.316       .  A
C3655      H3664   1.082       .  S
C3655      C3656   1.402       .  A
C3656      C3659   1.368       .  A
O3657      C3658   1.332       .  A
C3658      C3659   1.391       .  A
C3659      H3665   1.082       .  S
O3660      C3661   1.334       .  A
C3661      C3662   1.393       .  A
C3662      H3666   1.083       .  S
C3667      C3672   1.380       .  A
C3667      C3668   1.406       .  A
C3668      C3669   1.408       .  A
C3669      C3678   1.363       .  A
C3669      C3670   1.380       .  A
C3670      C3671   1.406       .  A
C3670      O3676   1.324       .  A
C3671      H3680   1.082       .  S
C3671      C3672   1.406       .  A
C3672      C3675   1.362       .  A
C3674      C3675   1.395       .  A
C3675      H3681   1.083       .  S
O3676      C3677   1.333       .  A
C3677      C3678   1.397       .  A
C3678      H3682   1.083       .  S
C3683      C3688   1.379       .  A
C3683      C3684   1.404       .  A
C3683      O3689   1.317       .  A
C3684      H3695   1.082       .  S
C3684      C3685   1.402       .  A
C3685      C3694   1.363       .  A
C3685      C3686   1.379       .  A
C3686      C3687   1.409       .  A
C3686      O3692   1.324       .  A
C3687      H3696   1.082       .  S
C3687      C3688   1.409       .  A
C3688      C3691   1.369       .  A
O3689      C3690   1.333       .  A
C3690      C3691   1.395       .  A
C3691      H3697   1.082       .  S
O3692      C3693   1.335       .  A
C3693      C3694   1.393       .  A
C3694      H3698   1.083       .  S
C3699      C3704   1.379       .  A
C3699      C3700   1.404       .  A
C3699      O3705   1.315       .  A
C3700      H3711   1.082       .  S
C3700      C3701   1.401       .  A
C3701      C3710   1.364       .  A
C3701      C3702   1.379       .  A
C3702      C3703   1.406       .  A
C3702      O3708   1.320       .  A
C3703      H3712   1.082       .  S
C3703      C3704   1.405       .  A
C3704      C3707   1.367       .  A
O3705      C3706   1.333       .  A
C3706      C3707   1.394       .  A
C3707      H3713   1.083       .  S
O3708      C3709   1.332       .  A
C3709      C3710   1.391       .  A
C3710      H3714   1.082       .  S
C3715      C3720   1.380       .  A
C3715      C3716   1.404       .  A
C3715      O3721   1.326       .  A
C3716      H3727   1.082       .  S
C3716      C3717   1.406       .  A
C3717      C3726   1.358       .  A
C3717      C3718   1.380       .  A
C3718      C3719   1.405       .  A
C3718      O3724   1.327       .  A
C3719      H3728   1.082       .  S
C3719      C3720   1.408       .  A
C3720      C3723   1.359       .  A
O3721      C3722   1.333       .  A
C3722      C3723   1.397       .  A
C3723      H3729   1.083       .  S
O3724      C3725   1.333       .  A
C3725      C3726   1.395       .  A
C3726      H3730   1.083       .  S
C3731      C3736   1.381       .  A
C3731      C3732   1.404       .  A
C3731      O3737   1.323       .  A
C3732      H3743   1.082       .  S
C3732      C3733   1.405       .  A
C3733      C3742   1.360       .  A
C3733      C3734   1.381       .  A
C3734      C3735   1.404       .  A
C3734      O5090   1.324       .  A
C3735      H5094   1.082       .  S
C3735      C3736   1.406       .  A
C3736      C3739   1.360       .  A
O3737      C3738   1.332       .  A
C3738      C3739   1.394       .  A
C3739      H3745   1.083       .  S
O3740      C5084   1.324       .  A
O3740      C5091   1.331       .  A
C3741      C3742   1.394       .  A
C3741      O5090   1.331       .  A
C3742      H3746   1.083       .  S
H3744      C5085   1.082       .  S
C3747      C3752   1.379       .  A
C3747      C3748   1.406       .  A
C3747      O3753   1.326       .  A
C3748      H5109   1.082       .  S
C3748      C3749   1.408       .  A
C3749      C3758   1.362       .  A
C3749      C3750   1.379       .  A
C3750      C3751   1.403       .  A
C3750      O3756   1.321       .  A
C3751      H3760   1.082       .  S
C3751      C3752   1.403       .  A
C3752      C3755   1.356       .  A
O3753      C3754   1.333       .  A
C3754      C3755   1.394       .  A
C3755      H3761   1.083       .  S
O3756      C3757   1.332       .  A
C3757      C3758   1.397       .  A
C3758      H3762   1.083       .  S
H3759      C5098   1.082       .  S
C3763      C3768   1.380       .  A
C3763      C3764   1.403       .  A
C3763      O3769   1.321       .  A
C3764      C3765   1.404       .  A
C3765      C3774   1.359       .  A
C3765      C3766   1.380       .  A
C3766      C3767   1.405       .  A
C3766      O3772   1.321       .  A
C3767      H3776   1.082       .  S
C3767      C3768   1.405       .  A
C3768      C3771   1.362       .  A
O3769      C3770   1.331       .  A
C3770      C3771   1.393       .  A
C3771      H3777   1.083       .  S
O3772      C3773   1.332       .  A
C3773      C3774   1.394       .  A
C3774      H3778   1.083       .  S
C3779      C3784   1.378       .  A
C3779      C3780   1.410       .  A
C3779      O3785   1.320       .  A
C3780      H3791   1.082       .  S
C3780      C3781   1.407       .  A
C3781      C3790   1.374       .  A
C3781      C3782   1.378       .  A
C3782      C3783   1.409       .  A
C3782      O3788   1.318       .  A
C3783      H3792   1.082       .  S
C3783      C3784   1.405       .  A
C3784      C3787   1.373       .  A
O3785      C3786   1.336       .  A
C3786      C3787   1.394       .  A
C3787      H3793   1.082       .  S
O3788      C3789   1.336       .  A
C3789      C3790   1.395       .  A
C3790      H3794   1.082       .  S
C3795      C3800   1.378       .  A
C3795      C3796   1.410       .  A
C3795      O3801   1.321       .  A
C3796      H3807   1.082       .  S
C3796      C3797   1.407       .  A
C3797      C3806   1.373       .  A
C3797      C3798   1.378       .  A
C3798      C3799   1.410       .  A
C3798      O3804   1.319       .  A
C3799      H3808   1.082       .  S
C3799      C3800   1.407       .  A
C3800      C3803   1.373       .  A
O3801      C3802   1.335       .  A
C3802      C3803   1.395       .  A
C3803      H3809   1.082       .  S
O3804      C3805   1.337       .  A
C3805      C3806   1.396       .  A
C3806      H3810   1.082       .  S
C3811      C3816   1.380       .  A
C3811      C3812   1.401       .  A
C3811      O3817   1.317       .  A
C3812      H3823   1.082       .  S
C3812      C3813   1.401       .  A
C3813      C3822   1.358       .  A
C3813      C3814   1.379       .  A
C3814      C3815   1.409       .  A
C3814      O3820   1.323       .  A
C3815      H3824   1.082       .  S
C3815      C3816   1.407       .  A
C3816      C3819   1.368       .  A
O3817      C3818   1.330       .  A
C3818      C3819   1.394       .  A
C3819      H3825   1.082       .  S
O3820      C3821   1.334       .  A
C3821      C3822   1.393       .  A
C3822      H3826   1.083       .  S
C3827      C3832   1.379       .  A
C3827      C3828   1.409       .  A
C3827      O3833   1.318       .  A
C3828      H3839   1.082       .  S
C3828      C3829   1.406       .  A
C3829      C3838   1.373       .  A
C3829      C3830   1.378       .  A
C3830      C3831   1.408       .  A
C3830      O3836   1.316       .  A
C3831      H3840   1.082       .  S
C3831      C3832   1.404       .  A
C3832      C3835   1.371       .  A
O3833      C3834   1.334       .  A
C3834      C3835   1.393       .  A
C3835      H3841   1.082       .  S
O3836      C3837   1.335       .  A
C3837      C3838   1.396       .  A
C3838      H3842   1.082       .  S
C3843      C3848   1.378       .  A
C3843      C3844   1.409       .  A
C3843      O3849   1.319       .  A
C3844      C3845   1.406       .  A
C3845      C3854   1.371       .  A
C3845      C3846   1.379       .  A
C3846      C3847   1.408       .  A
C3846      O3852   1.319       .  A
C3847      H3856   1.082       .  S
C3847      C3848   1.406       .  A
C3848      C3851   1.370       .  A
O3849      C3850   1.336       .  A
C3850      C3851   1.394       .  A
C3851      H3857   1.082       .  S
O3852      C3853   1.334       .  A
C3853      C3854   1.394       .  A
C3854      H3858   1.082       .  S
C3859      C3864   1.380       .  A
C3859      C3860   1.404       .  A
C3859      O3865   1.318       .  A
C3860      H3871   1.082       .  S
C3860      C3861   1.403       .  A
C3861      C3870   1.364       .  A
C3861      C3862   1.380       .  A
C3862      C3863   1.404       .  A
C3862      O3868   1.317       .  A
C3863      H5222   1.082       .  S
C3863      C3864   1.402       .  A
C3864      C3867   1.364       .  A
O3865      C3866   1.332       .  A
C3866      C3867   1.391       .  A
C3867      H3873   1.083       .  S
O3868      C3869   1.332       .  A
C3869      C3870   1.392       .  A
C3870      H3874   1.083       .  S
H3872      C5213   1.082       .  S
C3875      C3876   1.403       .  A
C3876      H3887   1.082       .  S
C3876      C3877   1.404       .  A
C3877      C3886   1.361       .  A
C3877      C3878   1.381       .  A
C3878      C3879   1.404   1_655  A
C3878      O3884   1.321       .  A
C3879      H3888   1.082       .  S
C3880      C3883   1.361       .  A
O3881      C3882   1.331       .  A
C3882      C3883   1.393       .  A
C3883      H3889   1.083       .  S
O3884      C3885   1.331       .  A
C3885      C3886   1.393       .  A
C3886      H3890   1.083       .  S
C3891      C3896   1.380       .  A
C3891      C3892   1.407       .  A
C3892      C3893   1.409       .  A
C3893      C3902   1.362   1_455  A
C3893      C3894   1.380       .  A
C3894      C3895   1.405       .  A
C3894      O3900   1.325   1_455  A
C3895      H3904   1.082       .  S
C3895      C3896   1.407       .  A
C3896      C3899   1.361       .  A
C3898      C3899   1.395       .  A
C3899      H3905   1.083       .  S
O3900      C3901   1.333       .  A
C3901      C3902   1.398       .  A
C3902      H3906   1.083       .  S
C3907      C3912   1.380   1_565  A
C3907      C3908   1.403       .  A
C3907      O3913   1.317   1_565  A
C3908      H3919   1.082       .  S
C3908      C3909   1.402       .  A
C3909      C3918   1.362       .  A
C3909      C3910   1.381       .  A
C3910      C3911   1.404       .  A
C3910      O3916   1.319       .  A
C3911      H3920   1.082   1_565  S
C3911      C3912   1.403   1_565  A
C3912      C3915   1.364       .  A
O3913      C3914   1.332       .  A
C3914      C3915   1.392       .  A
C3915      H3921   1.083       .  S
O3916      C3917   1.331       .  A
C3917      C3918   1.391       .  A
C3918      H3922   1.083       .  S
C3923      C3928   1.379       .  A
C3923      C3924   1.407   1_545  A
C3923      O3929   1.325       .  A
C3924      H3935   1.082       .  S
C3924      C3925   1.407       .  A
C3925      C5284   1.363       .  A
C3925      C3926   1.380   1_565  A
C3926      C3927   1.402       .  A
C3926      O3932   1.322       .  A
C3927      H3936   1.082       .  S
C3927      C3928   1.404       .  A
C3928      C3931   1.357       .  A
O3929      C3930   1.334       .  A
C3930      C3931   1.396       .  A
C3931      H3937   1.083       .  S
O3932      C5283   1.330   1_545  A
C3933      C3934   1.395       .  A
C3933      O5282   1.330       .  A
C3934      H3938   1.083       .  S
C3934      C5275   1.363       .  A
C3939      C3944   1.382       .  A
C3939      C3940   1.403       .  A
C3939      O3945   1.313       .  A
C3940      H3951   1.082       .  S
C3940      C3941   1.399       .  A
C3941      C3950   1.363       .  A
C3941      C3942   1.379       .  A
C3942      C3943   1.400       .  A
C3942      O3948   1.314       .  A
C3943      H3952   1.083       .  S
C3943      C3944   1.400       .  A
C3944      C3947   1.361       .  A
O3945      C3946   1.331       .  A
C3946      C3947   1.391       .  A
C3947      H3953   1.083       .  S
O3948      C3949   1.329       .  A
C3949      C3950   1.390       .  A
C3950      H3954   1.082       .  S
C3955      C3960   1.379       .  A
C3955      C3956   1.409       .  A
C3955      O3961   1.328       .  A
C3956      H3967   1.082       .  S
C3956      C3957   1.411       .  A
C3957      C3966   1.365       .  A
C3957      C3958   1.378       .  A
C3958      C3959   1.407       .  A
C3958      O3964   1.326       .  A
C3959      H3968   1.082       .  S
C3959      C3960   1.408       .  A
C3960      C3963   1.364       .  A
O3961      C3962   1.335       .  A
C3962      C3963   1.396       .  A
C3963      H3969   1.083       .  S
O3964      C3965   1.334       .  A
C3965      C3966   1.400       .  A
C3966      H3970   1.083       .  S
C3971      C3976   1.379       .  A
C3971      C3972   1.402       .  A
C3971      O5327   1.320       .  A
C3972      H3983   1.082       .  S
C3972      C3973   1.403       .  A
C3973      C3982   1.359       .  A
C3973      C3974   1.379       .  A
C3974      C3975   1.406       .  A
C3974      O3980   1.321       .  A
C3975      H3984   1.082       .  S
C3975      C3976   1.406       .  A
C3976      C3979   1.363   1_545  A
O3977      C5321   1.320       .  A
O3977      C3978   1.331       .  A
C3978      C5329   1.395       .  A
C3979      H3985   1.083       .  S
C3979      C5328   1.395   1_565  A
O3980      C3981   1.333       .  A
C3981      C3982   1.394       .  A
C3982      H3986   1.083       .  S
C3987      C3992   1.381       .  A
C3987      C3988   1.403       .  A
C3987      O3993   1.323       .  A
C3988      C3989   1.405       .  A
C3989      C3998   1.359       .  A
C3989      C3990   1.380       .  A
C3990      C3991   1.406       .  A
C3990      O3996   1.325       .  A
C3991      H4000   1.083       .  S
C3991      C3992   1.407       .  A
C3992      C3995   1.361       .  A
O3993      C3994   1.331       .  A
C3994      C3995   1.395       .  A
C3995      H4001   1.083       .  S
O3996      C3997   1.333       .  A
C3997      C3998   1.395       .  A
C4003      C4008   1.381       .  A
C4003      C4004   1.401       .  A
C4003      O4009   1.318       .  A
C4004      H4015   1.082       .  S
C4004      C4005   1.400       .  A
C4005      C4014   1.355       .  A
C4005      C4006   1.380       .  A
C4006      C4007   1.403       .  A
C4006      O4012   1.323       .  A
C4007      H4016   1.082       .  S
C4007      C4008   1.406       .  A
C4008      C4011   1.358       .  A
O4009      C4010   1.330       .  A
C4010      C4011   1.396       .  A
C4011      H4017   1.083       .  S
O4012      C4013   1.331       .  A
C4013      C4014   1.390       .  A
C4014      H4018   1.083       .  S
C4019      C4024   1.378   1_655  A
C4019      O4025   1.318       .  A
C4020      H4031   1.082       .  S
C4020      C4021   1.405       .  A
C4021      C4030   1.372       .  A
C4022      C4023   1.403       .  A
C4022      O4028   1.314       .  A
C4023      H4032   1.082       .  S
C4023      C4024   1.401       .  A
C4024      C4027   1.364       .  A
O4025      C4026   1.336       .  A
C4026      C4027   1.393   1_655  A
C4027      H4033   1.083       .  S
C4029      C4030   1.393       .  A
C4030      H4034   1.082       .  S
C4035      C4040   1.380       .  A
C4035      C4036   1.406       .  A
C4035      O4041   1.323       .  A
C4036      H4047   1.082       .  S
C4036      C4037   1.406       .  A
C4037      C4046   1.365       .  A
C4037      C4038   1.380       .  A
C4038      C4039   1.403       .  A
C4038      O4044   1.320       .  A
C4039      H4048   1.083       .  S
C4039      C4040   1.403       .  A
C4040      C4043   1.360       .  A
O4041      C4042   1.332       .  A
C4042      C4043   1.394       .  A
C4043      H4049   1.083       .  S
O4044      C4045   1.331       .  A
C4045      C4046   1.394       .  A
C4046      H4050   1.083       .  S
O4051     Mg4053   2.170       .  S
O4051     Mg4059   2.152       .  S
O4051      C4086   1.238       .  S
C4052      O4065   1.233       .  S
C4052      O4089   1.267       .  A
C4052      H4091   1.081       .  S
Mg4053     O4082   2.162       .  S
Mg4053     O4097   2.343       .  S
Mg4053     O4093   2.297       .  S
Mg4053     O4064   2.306       .  S
O4054     Mg4096   2.160       .  S
O4054     Mg4079   2.139       .  S
O4054      C4075   1.238       .  S
O4055      C4086   1.274       .  A
O4055     Mg4079   2.319       .  S
C4056      O4058   1.278       .  A
C4056      O4070   1.265       .  A
C4056      C5379   1.469       .  S
O4057      C4085   1.270       .  A
O4057     Mg4059   2.292       .  S
O4058     Mg4090   2.340       .  S
Mg4059     O4065   2.140       .  S
Mg4059     O4073   2.229       .  S
Mg4059     O4061   2.249       .  S
C4060      O4098   1.270       .  A
C4060      O4066   1.272       .  A
C4060      C5395   1.475       .  S
O4061      C4068   1.266       .  A
H4062      C4075   1.081       .  S
C4063      O4077   1.238       .  S
C4063      O4078   1.274       .  A
C4063      H4088   1.082       .  S
O4064      C4087   1.269       .  A
O4065     Mg4079   2.149       .  S
O4066     Mg4096   2.304       .  S
C4067      O4080   1.273       .  A
C4067      O4072   1.279       .  A
C4067      C4738   1.469       .  S
C4068      O4095   1.273       .  A
C4068      C5363   1.466       .  S
Mg4069     O4076   2.168       .  S
Mg4069     O4077   2.143       .  S
Mg4069     O4070   2.237       .  S
Mg4069     O4071   2.301       .  S
Mg4069     O4098   2.271       .  S
O4071      C4075   1.272       .  A
O4072     Mg4079   2.326       .  S
O4073      C4092   1.266       .  A
O4074      C4094   1.286       .  A
O4076     Mg4090   2.167       .  S
O4076      C4087   1.234       .  S
O4077     Mg4096   2.167       .  S
O4078     Mg4090   2.320       .  S
Mg4079     O4095   2.305       .  S
O4080     Mg4096   2.287       .  S
H4081      C4086   1.082       .  S
O4082     Mg4090   2.151       .  S
O4082      C4085   1.237       .  S
H4083      C4085   1.081       .  S
H4084      C4087   1.081       .  S
O4089     Mg4096   2.294       .  S
C4092      O4097   1.277       .  A
C4092      C5344   1.477       .  S
C4094      C4770   1.482       .  S
C4099      C5392   1.486       .  S
C4099      C4100   1.395       .  A
C4099      C4104   1.415       .  A
C4100      H4119   1.085       .  S
C4100      C4101   1.398       .  A
C4101      C5331   1.480       .  S
C4101      C4102   1.416       .  A
C4102      C4103   1.421       .  A
C4102      C4109   1.408       .  A
C4103      C4104   1.427       .  A
C4103      C4108   1.421       .  A
C4104      C4105   1.404       .  A
C4105      H4115   1.082       .  S
C4105      C4106   1.394       .  A
C4106      H4116   1.083       .  S
C4106      C4107   1.405       .  A
C4107      C4108   1.421       .  A
C4107      C4114   1.407       .  A
C4108      C4111   1.429       .  A
C4109      H4117   1.083       .  S
C4109      C4110   1.402       .  A
C4110      H4118   1.083       .  S
C4110      C4111   1.404       .  A
C4111      C4112   1.422       .  A
C4112      C5315   1.492       .  S
C4112      C4113   1.392       .  A
C4113      H4120   1.086       .  S
C4113      C4114   1.394       .  A
C4114      C5296   1.471       .  S
C4121      C5280   1.487       .  S
C4121      C4122   1.390       .  A
C4121      C4126   1.415       .  A
C4122      H4141   1.087       .  S
C4122      C4123   1.391       .  A
C4123      C5376   1.477       .  S
C4123      C4124   1.415       .  A
C4124      C4125   1.424       .  A
C4124      C4131   1.405       .  A
C4125      C4126   1.429       .  A
C4125      C4130   1.424       .  A
C4126      C4127   1.402       .  A
C4127      H4137   1.083       .  S
C4127      C4128   1.395       .  A
C4128      H4138   1.082       .  S
C4128      C4129   1.407       .  A
C4129      C4130   1.422       .  A
C4129      C4136   1.413       .  A
C4130      C4133   1.428       .  A
C4131      H4139   1.083   1_655  S
C4131      C4132   1.401       .  A
C4132      H4140   1.082   1_655  S
C4132      C4133   1.408       .  A
C4133      C4134   1.424       .  A
C4134      C5251   1.495       .  S
C4134      C4135   1.400       .  A
C4135      H4142   1.085       .  S
C4135      C4136   1.396       .  A
C4136      C5264   1.481       .  S
O4143     Mg4145   2.161       .  S
O4143     Mg4151   2.153       .  S
O4143      C4178   1.238       .  S
C4144      O4157   1.233       .  S
C4144      O4181   1.267       .  A
C4144      H4183   1.081       .  S
Mg4145     O4174   2.174       .  S
Mg4145     O4189   2.362       .  S
Mg4145     O4156   2.294       .  S
O4146     Mg4188   2.177       .  S
O4146     Mg4171   2.156       .  S
O4146      C4167   1.238       .  S
O4147      C4178   1.273       .  A
O4147     Mg4171   2.312       .  S
C4148      O4150   1.273       .  A
C4148      O4162   1.273       .  A
C4148      C5232   1.473       .  S
O4149      C4177   1.269       .  A
O4149     Mg4151   2.292       .  S
O4150     Mg4182   2.283       .  S
Mg4151     O4157   2.149       .  S
Mg4151     O4165   2.252       .  S
Mg4151     O4153   2.289       .  S
C4152      O4190   1.270       .  A
C4152      O4158   1.279       .  A
C4152      C5328   1.475   1_565  S
O4153      C4160   1.272       .  A
H4154      C4167   1.081   1_545  S
C4155      O4169   1.236       .  S
C4155      O4170   1.271       .  A
C4155      H4180   1.081       .  S
O4156      C4179   1.268       .  A
O4157     Mg4171   2.153       .  S
O4158     Mg4188   2.336       .  S
C4159      O4172   1.277       .  A
C4159      O4164   1.277       .  A
C4159      C4745   1.477       .  S
C4160      O4187   1.273   1_565  A
C4160      C5216   1.471       .  S
Mg4161     O4168   2.147       .  S
Mg4161     O4169   2.153       .  S
Mg4161     O4162   2.293       .  S
Mg4161     O4163   2.297       .  S
Mg4161     O4190   2.250       .  S
O4163      C4167   1.271       .  A
O4165      C4184   1.270       .  A
O4166      C4186   1.275       .  A
O4168     Mg4182   2.160       .  S
O4168      C4179   1.235       .  S
O4169     Mg4188   2.153       .  S
O4170     Mg4182   2.302       .  S
Mg4171     O4187   2.280   1_565  S
H4173      C4178   1.081       .  S
O4174     Mg4182   2.153       .  S
O4174      C4177   1.236       .  S
H4175      C4177   1.081       .  S
H4176      C4179   1.081       .  S
O4181     Mg4188   2.289       .  S
C4184      O4189   1.282       .  A
C4184      C5203   1.482       .  S
O4185      C4186   1.277       .  A
C4186      C4772   1.469       .  S
O4191     Mg4193   2.156       .  S
O4191     Mg4199   2.151       .  S
O4191      C4226   1.237       .  S
C4192      O4205   1.234       .  S
C4192      O4229   1.269       .  A
C4192      H4231   1.081       .  S
Mg4193     O4222   2.168       .  S
Mg4193     O4237   2.364       .  S
Mg4193     O4233   2.273       .  S
Mg4193     O4204   2.307       .  S
O4194     Mg4236   2.172       .  S
O4194     Mg4219   2.175       .  S
O4194      C4215   1.236       .  S
O4195      C4226   1.272       .  A
O4195     Mg4219   2.307       .  S
C4196      O4198   1.271       .  A
C4196      O4210   1.274       .  A
C4196      C5168   1.473       .  S
O4197      C4225   1.270       .  A
O4197     Mg4199   2.298       .  S
O4198     Mg4230   2.269       .  S
Mg4199     O4205   2.147       .  S
Mg4199     O4213   2.230       .  S
Mg4199     O4201   2.275       .  S
C4200      O4238   1.271       .  A
C4200      O4206   1.283       .  A
C4200      C5152   1.487   1_565  S
O4201      C4208   1.269       .  A
H4202      C4215   1.081   1_545  S
C4203      O4217   1.237       .  S
C4203      O4218   1.274       .  A
C4203      H4228   1.082       .  S
O4204      C4227   1.270       .  A
O4205     Mg4219   2.153       .  S
O4206     Mg4236   2.373       .  S
C4207      O4212   1.275       .  A
C4207      C4746   1.471       .  S
C4208      O4235   1.275       .  A
C4208      C5283   1.476       .  S
Mg4209     O4216   2.171       .  S
Mg4209     O4217   2.154       .  S
Mg4209     O4210   2.319       .  S
Mg4209     O4211   2.304       .  S
Mg4209     O4238   2.260       .  S
O4211      C4215   1.271       .  A
O4213      C4232   1.266       .  A
O4214      C4234   1.277       .  A
O4214     Mg4230   2.338       .  S
O4216     Mg4230   2.149       .  S
O4216      C4227   1.234       .  S
O4217     Mg4236   2.178       .  S
O4218     Mg4230   2.318       .  S
Mg4219     O4235   2.313       .  S
O4220     Mg4236   2.298   1_545  S
H4221      C4226   1.082       .  S
O4222     Mg4230   2.162       .  S
O4222      C4225   1.236       .  S
H4223      C4225   1.081       .  S
H4224      C4227   1.081       .  S
O4229     Mg4236   2.298       .  S
C4232      O4237   1.280       .  A
C4232      C5184   1.480       .  S
O4233      C4234   1.275       .  A
C4234      C4734   1.472       .  S
C4239      C5235   1.482       .  S
C4239      C4240   1.393       .  A
C4239      C4244   1.411       .  A
C4240      H4259   1.086       .  S
C4240      C4241   1.398       .  A
C4241      C5187   1.491       .  S
C4241      C4242   1.426       .  A
C4242      C4243   1.428       .  A
C4242      C4249   1.408       .  A
C4243      C4244   1.425       .  A
C4243      C4248   1.425       .  A
C4244      C4245   1.405       .  A
C4245      H4255   1.083       .  S
C4245      C4246   1.393       .  A
C4246      H4256   1.083       .  S
C4246      C4247   1.403       .  A
C4247      C4248   1.426       .  A
C4247      C4254   1.411       .  A
C4248      C4251   1.428       .  A
C4249      H4257   1.081       .  S
C4249      C4250   1.405       .  A
C4250      H4258   1.082       .  S
C4250      C4251   1.406       .  A
C4251      C4252   1.425       .  A
C4252      C5139   1.490       .  S
C4252      C4253   1.394       .  A
C4253      H4260   1.087       .  S
C4253      C4254   1.391       .  A
C4254      C5123   1.480       .  S
O4261     Mg4263   2.164       .  S
O4261      C4296   1.239       .  S
C4262      O4275   1.234       .  S
C4262      O4299   1.268   1_556  A
C4262      H4301   1.081       .  S
Mg4263     O4303   2.290       .  S
Mg4263     O4274   2.298   1_556  S
O4264     Mg4289   2.160   1_554  S
O4264      C4285   1.237       .  S
O4265      C4296   1.274       .  A
O4265     Mg4289   2.311       .  S
C4266      O4280   1.274       .  A
C4266      C5267   1.470       .  S
O4267      C4295   1.268       .  A
O4267     Mg4269   2.284       .  S
O4268     Mg4300   2.269       .  S
Mg4269     O4275   2.130       .  S
Mg4269     O4283   2.209       .  S
Mg4269     O4271   2.270   1_565  S
C4270      O4308   1.273       .  A
C4270      O4276   1.283       .  A
C4270      C5312   1.490       .  S
O4271      C4278   1.269       .  A
H4272      C4285   1.081       .  S
C4273      O4287   1.239       .  S
C4273      O4288   1.274       .  A
C4273      H4298   1.081       .  S
O4274      C4297   1.268       .  A
C4277      O4290   1.280       .  A
C4277      O4282   1.274   1_554  A
C4278      O4305   1.273       .  A
C4278      C5091   1.477       .  S
Mg4279     O4286   2.162       .  S
Mg4279     O4280   2.301       .  S
Mg4279     O4281   2.296       .  S
Mg4279     O4308   2.270       .  S
O4281      C4285   1.271       .  A
O4283      C4302   1.265       .  A
O4284      C4304   1.280       .  A
O4286      C4297   1.233       .  S
O4287     Mg4306   2.166       .  S
O4288     Mg4300   2.312       .  S
O4290     Mg4306   2.300   1_545  S
H4291      C4296   1.081       .  S
O4292     Mg4300   2.144   1_556  S
O4292      C4295   1.235       .  S
H4293      C4295   1.081       .  S
H4294      C4297   1.081       .  S
O4299     Mg4306   2.294       .  S
C4302      O4307   1.280       .  A
C4302      C5104   1.478       .  S
O4303      C4304   1.278   1_556  A
O4309     Mg4311   2.151       .  S
O4309     Mg4317   2.134       .  S
O4309      C4344   1.238       .  S
C4310      O4323   1.233       .  S
C4310      O4347   1.268   1_554  A
C4310      H4349   1.081       .  S
Mg4311     O4340   2.187       .  S
Mg4311     O4355   2.377       .  S
Mg4311     O4351   2.282       .  S
Mg4311     O4322   2.288   1_554  S
O4312     Mg4354   2.184       .  S
O4312     Mg4337   2.153   1_556  S
O4312      C4333   1.237       .  S
O4313      C4344   1.275       .  A
O4313     Mg4337   2.330       .  S
C4314      O4316   1.274       .  A
C4314      O4328   1.271       .  A
C4314      C5059   1.471       .  S
O4315      C4343   1.272       .  A
O4315     Mg4317   2.298       .  S
O4316     Mg4348   2.296       .  S
Mg4317     O4323   2.162       .  S
Mg4317     O4331   2.232       .  S
Mg4317     O4319   2.259       .  S
C4318      O4356   1.268       .  A
C4318      O4324   1.281       .  A
C4318      C5075   1.482       .  S
O4319      C4326   1.261       .  A
H4320      C4333   1.081       .  S
C4321      O4335   1.238       .  S
C4321      O4336   1.272       .  A
C4321      H4346   1.082       .  S
O4322      C4345   1.265       .  A
O4323     Mg4337   2.143       .  S
O4324     Mg4354   2.367       .  S
C4325      O4338   1.279   1_554  A
C4325      O4330   1.274       .  A
C4325      C4697   1.472       .  S
C4326      O4353   1.268       .  A
C4326      C5299   1.461       .  S
Mg4327     O4334   2.142       .  S
Mg4327     O4335   2.149       .  S
Mg4327     O4328   2.290       .  S
Mg4327     O4329   2.294       .  S
Mg4327     O4356   2.226       .  S
O4329      C4333   1.270       .  A
O4330     Mg4337   2.306       .  S
O4331      C4350   1.266       .  A
O4332      C4352   1.276       .  A
O4332     Mg4348   2.312       .  S
O4334     Mg4348   2.148       .  S
O4334      C4345   1.231       .  S
O4335     Mg4354   2.163       .  S
O4336     Mg4348   2.308       .  S
Mg4337     O4353   2.292       .  S
O4338     Mg4354   2.296       .  S
H4339      C4344   1.081       .  S
O4340     Mg4348   2.166   1_554  S
O4340      C4343   1.238       .  S
H4341      C4343   1.081       .  S
H4342      C4345   1.081       .  S
O4347     Mg4354   2.302       .  S
C4350      O4355   1.282       .  A
C4350      C5136   1.485       .  S
O4351      C4352   1.278   1_554  A
C4352      C4724   1.468       .  S
O4357     Mg4359   2.173       .  S
O4357      C4392   1.238       .  S
C4358      O4371   1.234       .  S
C4358      O4395   1.269   1_554  A
C4358      H4397   1.081       .  S
Mg4359     O4399   2.298       .  S
Mg4359     O4370   2.302       .  S
O4360     Mg4385   2.160   1_556  S
O4360      C4381   1.237       .  S
O4361      C4392   1.274       .  A
O4361     Mg4385   2.318       .  S
C4362      O4364   1.279       .  A
C4362      O4376   1.274       .  A
C4362      C5024   1.483       .  S
O4363      C4391   1.271       .  A
O4363     Mg4365   2.298       .  S
Mg4365     O4371   2.143       .  S
Mg4365     O4379   2.244       .  S
Mg4365     O4367   2.286   1_655  S
C4366      O4404   1.272       .  A
C4366      O4372   1.276       .  A
C4366      C5043   1.481       .  S
O4367      C4374   1.272       .  A
H4368      C4381   1.081       .  S
C4369      O4383   1.237       .  S
C4369      O4384   1.273       .  A
C4369      H4394   1.081       .  S
O4370      C4393   1.269   1_554  A
C4373      O4386   1.273       .  A
C4373      O4378   1.281   1_556  A
C4374      C5248   1.485       .  S
Mg4375     O4382   2.170       .  S
Mg4375     O4376   2.294       .  S
Mg4375     O4377   2.299       .  S
Mg4375     O4404   2.290       .  S
O4377      C4381   1.271       .  A
O4379      C4398   1.268       .  A
O4380      C4400   1.285   1_556  A
O4382      C4393   1.233       .  S
O4383     Mg4402   2.162   1_655  S
O4384     Mg4396   2.313       .  S
Mg4385     O4401   2.331       .  S
O4386     Mg4402   2.284       .  S
H4387      C4392   1.081       .  S
O4388     Mg4396   2.166   1_554  S
O4388      C4391   1.237       .  S
H4389      C4391   1.081       .  S
H4390      C4393   1.081       .  S
O4395     Mg4402   2.299   1_655  S
C4398      O4403   1.275       .  A
C4398      C5120   1.474       .  S
O4399      C4400   1.274       .  A
O4405     Mg4407   2.168       .  S
O4405     Mg4413   2.150       .  S
O4405      C4440   1.237       .  S
C4406      O4419   1.233       .  S
C4406      O4443   1.267       .  A
C4406      H4445   1.081       .  S
Mg4407     O4436   2.184       .  S
Mg4407     O4451   2.356       .  S
Mg4407     O4447   2.289       .  S
Mg4407     O4418   2.294       .  S
O4408     Mg4450   2.178       .  S
O4408     Mg4433   2.144       .  S
O4408      C4429   1.238       .  S
O4409      C4440   1.274       .  A
O4409     Mg4433   2.319       .  S
C4410      O4424   1.266       .  A
C4410      C4960   1.475       .  S
O4411      C4439   1.270       .  A
O4411     Mg4413   2.290       .  S
Mg4413     O4419   2.142       .  S
Mg4413     O4427   2.211       .  S
Mg4413     O4415   2.266       .  S
C4414      O4452   1.266       .  A
C4414      O4420   1.277       .  A
C4414      C4976   1.470       .  S
O4415      C4422   1.266       .  A
H4416      C4429   1.081       .  S
C4417      O4431   1.238       .  S
C4417      O4432   1.273       .  A
C4417      H4442   1.082       .  S
O4418      C4441   1.267       .  A
O4419     Mg4433   2.148       .  S
O4420     Mg4450   2.332       .  S
C4421      O4434   1.275       .  A
C4421      O4426   1.278       .  A
C4421      C4782   1.472       .  S
C4422      O4449   1.274       .  A
C4422      C5008   1.471       .  S
Mg4423     O4430   2.144       .  S
Mg4423     O4431   2.145       .  S
Mg4423     O4424   2.249       .  S
Mg4423     O4425   2.297       .  S
Mg4423     O4452   2.235       .  S
O4425      C4429   1.271       .  A
O4426     Mg4433   2.316       .  S
O4427      C4446   1.264       .  A
O4428      C4448   1.283       .  A
O4430     Mg4444   2.162       .  S
O4430      C4441   1.232       .  S
O4431     Mg4450   2.167       .  S
O4432     Mg4444   2.314       .  S
Mg4433     O4449   2.313       .  S
O4434     Mg4450   2.297       .  S
H4435      C4440   1.082       .  S
O4436     Mg4444   2.152       .  S
O4436      C4439   1.237       .  S
H4437      C4439   1.081       .  S
H4438      C4441   1.081       .  S
O4443     Mg4450   2.294       .  S
C4446      O4451   1.278       .  A
C4446      C4995   1.478       .  S
C4448      C4794   1.471       .  S
C4453      C5072   1.492       .  S
C4453      C4454   1.395       .  A
C4453      C4458   1.420       .  A
C4454      H4473   1.086       .  S
C4454      C4455   1.393       .  A
C4455      C5040   1.482       .  S
C4455      C4456   1.417       .  A
C4456      C4457   1.425       .  A
C4456      C4463   1.406       .  A
C4457      C4458   1.429       .  A
C4457      C4462   1.425       .  A
C4458      C4459   1.405       .  A
C4459      H4469   1.082       .  S
C4459      C4460   1.398       .  A
C4460      H4470   1.082       .  S
C4460      C4461   1.407       .  A
C4461      C4462   1.424       .  A
C4461      C4468   1.415       .  A
C4462      C4465   1.429       .  A
C4463      H4471   1.083       .  S
C4463      C4464   1.401       .  A
C4464      H4472   1.083       .  S
C4464      C4465   1.406       .  A
C4465      C4466   1.423       .  A
C4466      C4944   1.497       .  S
C4466      C4467   1.397       .  A
C4467      H4474   1.085       .  S
C4467      C4468   1.394       .  A
C4468      C4979   1.481       .  S
C4475      C5088   1.486       .  S
C4475      C4476   1.398       .  A
C4475      C4480   1.418       .  A
C4476      H4495   1.085       .  S
C4476      C4477   1.399       .  A
C4477      C5027   1.491       .  S
C4477      C4478   1.420       .  A
C4478      C4479   1.426       .  A
C4478      C4485   1.408       .  A
C4479      C4480   1.425       .  A
C4479      C4484   1.425       .  A
C4480      C4481   1.408       .  A
C4481      H4491   1.083   1_565  S
C4481      C4482   1.399       .  A
C4482      H4492   1.083       .  S
C4482      C4483   1.404       .  A
C4483      C4484   1.428       .  A
C4483      C4490   1.416       .  A
C4484      C4487   1.429       .  A
C4485      H4493   1.083       .  S
C4485      C4486   1.400       .  A
C4486      H4494   1.083       .  S
C4486      C4487   1.404       .  A
C4487      C4488   1.418       .  A
C4488      C4928   1.486       .  S
C4488      C4489   1.390       .  A
C4489      H4496   1.087       .  S
C4489      C4490   1.388       .  A
C4490      C4963   1.480       .  S
O4497     Mg4499   2.165       .  S
O4497     Mg4505   2.147       .  S
O4497      C4532   1.237       .  S
C4498      O4511   1.235       .  S
C4498      O4535   1.269       .  A
C4498      H4537   1.081       .  S
Mg4499     O4528   2.186       .  S
Mg4499     O4543   2.329       .  S
Mg4499     O4510   2.296       .  S
O4500     Mg4542   2.175       .  S
O4500     Mg4525   2.158       .  S
O4500      C4521   1.238       .  S
O4501      C4532   1.273       .  A
O4501     Mg4525   2.315       .  S
C4502      O4516   1.276       .  A
C4502      C4947   1.486   1_655  S
O4503      C4531   1.272       .  A
O4503     Mg4505   2.301       .  S
Mg4505     O4511   2.145       .  S
Mg4505     O4519   2.241       .  S
Mg4505     O4507   2.276       .  S
C4506      O4544   1.271       .  A
C4506      O4512   1.278       .  A
C4506      C4880   1.474       .  S
O4507      C4514   1.269       .  A
H4508      C4521   1.081       .  S
C4509      O4523   1.235       .  S
C4509      O4524   1.271       .  A
C4509      H4534   1.082       .  S
O4510      C4533   1.268       .  A
O4511     Mg4525   2.156       .  S
O4512     Mg4542   2.333       .  S
C4513      O4526   1.277       .  A
C4513      O4518   1.283       .  A
C4513      C4793   1.483       .  S
C4514      O4541   1.280       .  A
C4514      C4896   1.480       .  S
Mg4515     O4522   2.154       .  S
Mg4515     O4523   2.154       .  S
Mg4515     O4516   2.314       .  S
Mg4515     O4517   2.301       .  S
Mg4515     O4544   2.254       .  S
O4517      C4521   1.272       .  A
O4519      C4538   1.267       .  A
O4520      C4540   1.278       .  A
O4522     Mg4536   2.162       .  S
O4522      C4533   1.234       .  S
O4523     Mg4542   2.176       .  S
O4524     Mg4536   2.307       .  S
Mg4525     O4541   2.342       .  S
H4527      C4532   1.082       .  S
O4528     Mg4536   2.160       .  S
O4528      C4531   1.238       .  S
H4529      C4531   1.081   1_455  S
H4530      C4533   1.081       .  S
O4535     Mg4542   2.294       .  S
C4538      O4543   1.275       .  A
C4538      C4912   1.475       .  S
O4539      C4540   1.273       .  A
C4540      C4820   1.471       .  S
O4545     Mg4547   2.150       .  S
O4545     Mg4553   2.144       .  S
O4545      C4580   1.236       .  S
C4546      O4559   1.233       .  S
C4546      O4583   1.267       .  A
C4546      H4585   1.081       .  S
Mg4547     O4576   2.184       .  S
Mg4547     O4591   2.355       .  S
Mg4547     O4587   2.277       .  S
Mg4547     O4558   2.297       .  S
O4548     Mg4590   2.189       .  S
O4548     Mg4573   2.191       .  S
O4548      C4569   1.237       .  S
O4549      C4580   1.270       .  A
O4549     Mg4573   2.301       .  S
C4550      O4552   1.269       .  A
C4550      O4564   1.270       .  A
C4550      C4848   1.466       .  S
O4551      C4579   1.271       .  A
O4551     Mg4553   2.292       .  S
O4552     Mg4584   2.262       .  S
Mg4553     O4559   2.145       .  S
Mg4553     O4567   2.228       .  S
Mg4553     O4555   2.280       .  S
C4554      O4592   1.267       .  A
C4554      O4560   1.284       .  A
C4554      C4867   1.493       .  S
O4555      C4562   1.270       .  A
H4556      C4569   1.081   1_455  S
C4557      O4571   1.238       .  S
C4557      O4572   1.275       .  A
C4557      H4582   1.082       .  S
O4558      C4581   1.268       .  A
O4559     Mg4573   2.155       .  S
O4560     Mg4590   2.399       .  S
C4561      O4566   1.277       .  A
C4561      C4818   1.469       .  S
C4562      C4931   1.480       .  S
Mg4563     O4570   2.156       .  S
Mg4563     O4571   2.141       .  S
Mg4563     O4564   2.300       .  S
Mg4563     O4565   2.304       .  S
Mg4563     O4592   2.232       .  S
O4565      C4569   1.272       .  A
O4567      C4586   1.267       .  A
O4568      C4588   1.276       .  A
O4568     Mg4584   2.325       .  S
O4570     Mg4584   2.142       .  S
O4570      C4581   1.233       .  S
O4571     Mg4590   2.171       .  S
O4572     Mg4584   2.327       .  S
O4574     Mg4590   2.277   1_455  S
H4575      C4580   1.082       .  S
O4576     Mg4584   2.149       .  S
O4576      C4579   1.237       .  S
H4577      C4579   1.081       .  S
H4578      C4581   1.081       .  S
O4583     Mg4590   2.295       .  S
C4586      O4591   1.280       .  A
C4586      C4835   1.479       .  S
O4587      C4588   1.276       .  A
C4588      C4786   1.473       .  S
C4593      C5107   1.481       .  S
C4593      C4594   1.390       .  A
C4593      C4598   1.415       .  A
C4594      H4613   1.087       .  S
C4594      C4595   1.392       .  A
C4595      C5056   1.479       .  S
C4595      C4596   1.416       .  A
C4596      C4597   1.425       .  A
C4596      C4603   1.404       .  A
C4597      C4598   1.426       .  A
C4597      C4602   1.423       .  A
C4598      C4599   1.404       .  A
C4599      H4609   1.083       .  S
C4599      C4600   1.398       .  A
C4600      H4610   1.083       .  S
C4600      C4601   1.407       .  A
C4601      C4602   1.425       .  A
C4601      C4608   1.416       .  A
C4602      C4605   1.427       .  A
C4603      H4611   1.083       .  S
C4603      C4604   1.398       .  A
C4604      H4612   1.082       .  S
C4604      C4605   1.407       .  A
C4605      C4606   1.419       .  A
C4606      C4832   1.490       .  S
C4606      C4607   1.397       .  A
C4607      H4614   1.085       .  S
C4607      C4608   1.397       .  A
C4608      C4883   1.487       .  S
C4615      C5200   1.490       .  S
C4615      C4616   1.395       .  A
C4615      C4620   1.424       .  A
C4616      H4635   1.086       .  S
C4616      C4617   1.396       .  A
C4617      C5347   1.489       .  S
C4617      C4618   1.417       .  A
C4618      C4619   1.428       .  A
C4618      C4625   1.405       .  A
C4619      C4620   1.427       .  A
C4620      C4621   1.408       .  A
C4621      H4631   1.082       .  S
C4622      H4632   1.083       .  S
C4622      C4623   1.406       .  A
C4623      C4624   1.430       .  A
C4623      C4630   1.425       .  A
C4624      C4627   1.427       .  A
C4625      H4633   1.083       .  S
C4626      H4634   1.082       .  S
C4626      C4627   1.406       .  A
C4627      C4628   1.416       .  A
C4628      C4915   1.488       .  S
C4628      C4629   1.395       .  A
C4629      H4636   1.085       .  S
C4629      C4630   1.395       .  A
C4630      C4864   1.496       .  S
C4637      C5171   1.482       .  S
C4637      C4638   1.392       .  A
C4637      C4642   1.411       .  A
C4638      H4657   1.086       .  S
C4638      C4639   1.395       .  A
C4639      C5360   1.476       .  S
C4639      C4640   1.413       .  A
C4640      C4641   1.423       .  A
C4640      C4647   1.407       .  A
C4641      C4642   1.426       .  A
C4641      C4646   1.418       .  A
C4642      C4643   1.403       .  A
C4643      H4653   1.083       .  S
C4643      C4644   1.395       .  A
C4644      H4654   1.083       .  S
C4644      C4645   1.405       .  A
C4645      C4646   1.423       .  A
C4645      C4652   1.408       .  A
C4646      C4649   1.426       .  A
C4647      H4655   1.083       .  S
C4647      C4648   1.399       .  A
C4648      H4656   1.083       .  S
C4648      C4649   1.405       .  A
C4649      C4650   1.416       .  A
C4650      C5011   1.480       .  S
C4650      C4651   1.393       .  A
C4651      H4658   1.086       .  S
C4651      C4652   1.392       .  A
C4652      C4851   1.476       .  S
C4659      C5219   1.483       .  S
C4659      C4660   1.394       .  A
C4659      C4664   1.414       .  A
C4660      H4679   1.085       .  S
C4660      C4661   1.399       .  A
C4661      C5155   1.497       .  S
C4661      C4662   1.428       .  A
C4662      C4663   1.429       .  A
C4662      C4669   1.408       .  A
C4663      C4664   1.424       .  A
C4664      C4665   1.407       .  A
C4665      H4675   1.082       .  S
C4666      H4676   1.083       .  S
C4666      C4667   1.402       .  A
C4667      C4668   1.428       .  A
C4667      C4674   1.414       .  A
C4668      C4671   1.427       .  A
C4669      H4677   1.082       .  S
C4670      H4678   1.083       .  S
C4670      C4671   1.407       .  A
C4671      C4672   1.423       .  A
C4672      C4899   1.488       .  S
C4672      C4673   1.394       .  A
C4673      H4680   1.086       .  S
C4673      C4674   1.392       .  A
C4674      C4992   1.487       .  S
O4681     Mg4689   2.165   1_556  S
O4681      C4716   1.233       .  S
C4682      O4695   1.234       .  S
C4682      O4719   1.267       .  A
C4682      H4721   1.081       .  S
Mg4683     O4712   2.178   1_556  S
Mg4683     O4727   2.344   1_556  S
Mg4683     O4723   2.272       .  S
Mg4683     O4694   2.314       .  S
O4684     Mg4726   2.174   1_556  S
O4684     Mg4709   2.159       .  S
O4684      C4705   1.234       .  S
O4685     Mg4709   2.292       .  S
C4686      O4688   1.276   1_455  A
O4687      C4715   1.272       .  A
O4688     Mg4720   2.307       .  S
Mg4689     O4703   2.281       .  S
Mg4689     O4691   2.317   1_554  S
C4690      O4696   1.272       .  A
H4692      C4705   1.081       .  S
C4693      O4707   1.232       .  S
C4693      H4718   1.081       .  S
O4694      C4717   1.272       .  A
O4695     Mg4709   2.184   1_554  S
O4696     Mg4726   2.293   1_556  S
C4697      O4710   1.273       .  A
C4697      O4702   1.272   1_554  A
C4698      O4725   1.272       .  A
Mg4699     O4707   2.163   1_556  S
Mg4699     O4700   2.325   1_556  S
Mg4699     O4701   2.306       .  S
Mg4699     O4728   2.291       .  S
O4702     Mg4709   2.298       .  S
O4704      C4724   1.273   1_554  A
O4704     Mg4720   2.303       .  S
O4706     Mg4720   2.176   1_556  S
O4706      C4717   1.236       .  S
O4708     Mg4720   2.304   1_455  S
Mg4709     O4725   2.266       .  S
O4710     Mg4726   2.285       .  S
H4711      C4716   1.081       .  S
O4712     Mg4720   2.192       .  S
O4712      C4715   1.235       .  S
H4713      C4715   1.081       .  S
H4714      C4717   1.081       .  S
O4719     Mg4726   2.288       .  S
C4722      O4727   1.279       .  A
O4723      C4724   1.272       .  A
O4729     Mg4731   2.175       .  S
O4729     Mg4737   2.165       .  S
O4729      C4764   1.234       .  S
C4730      O4743   1.235       .  S
C4730      O4767   1.270       .  A
C4730      H4769   1.081       .  S
Mg4731     O4760   2.192       .  S
Mg4731     O4775   2.313       .  S
Mg4731     O4771   2.290       .  S
Mg4731     O4742   2.286       .  S
O4732     Mg4774   2.181       .  S
O4732     Mg4757   2.169       .  S
O4732      C4753   1.236       .  S
O4733      C4764   1.271       .  A
O4733     Mg4757   2.313       .  S
C4734      O4736   1.273       .  A
C4734      O4748   1.276       .  A
O4735      C4763   1.269       .  A
O4735     Mg4737   2.300       .  S
O4736     Mg4768   2.292       .  S
Mg4737     O4743   2.192       .  S
Mg4737     O4751   2.316       .  S
Mg4737     O4739   2.319       .  S
C4738      O4776   1.273       .  A
C4738      O4744   1.274       .  A
O4739      C4746   1.277       .  A
H4740      C4753   1.081       .  S
C4741      O4755   1.234       .  S
C4741      O4756   1.269       .  A
C4741      H4766   1.081       .  S
O4742      C4765   1.266       .  A
O4743     Mg4757   2.173       .  S
O4744     Mg4774   2.309       .  S
C4745      O4758   1.272       .  A
C4745      O4750   1.275       .  A
C4746      O4773   1.272       .  A
Mg4747     O4754   2.151       .  S
Mg4747     O4755   2.165       .  S
Mg4747     O4748   2.313       .  S
Mg4747     O4749   2.304       .  S
Mg4747     O4776   2.280       .  S
O4749      C4753   1.271       .  A
O4750     Mg4757   2.318       .  S
O4751      C4770   1.277       .  A
O4752      C4772   1.272       .  A
O4752     Mg4768   2.287       .  S
O4754     Mg4768   2.171       .  S
O4754      C4765   1.232       .  S
O4755     Mg4774   2.162       .  S
O4756     Mg4768   2.299       .  S
Mg4757     O4773   2.282       .  S
O4758     Mg4774   2.284       .  S
H4759      C4764   1.081       .  S
O4760     Mg4768   2.170       .  S
O4760      C4763   1.235       .  S
H4761      C4763   1.081       .  S
H4762      C4765   1.081       .  S
O4767     Mg4774   2.306       .  S
C4770      O4775   1.274       .  A
O4771      C4772   1.275       .  A
O4777     Mg4779   2.161       .  S
O4777     Mg4785   2.182       .  S
O4777      C4812   1.234       .  S
C4778      O4791   1.233       .  S
C4778      O4815   1.268       .  A
C4778      H4817   1.081       .  S
Mg4779     O4808   2.183       .  S
Mg4779     O4823   2.275       .  S
Mg4779     O4819   2.280       .  S
Mg4779     O4790   2.289       .  S
O4780     Mg4822   2.185       .  S
O4780     Mg4805   2.164       .  S
O4780      C4801   1.235       .  S
O4781      C4812   1.268       .  A
O4781     Mg4805   2.295       .  S
C4782      O4784   1.274       .  A
C4782      O4796   1.276       .  A
O4783      C4811   1.267       .  A
O4783     Mg4785   2.289       .  S
O4784     Mg4816   2.294       .  S
Mg4785     O4791   2.167       .  S
Mg4785     O4799   2.301       .  S
Mg4785     O4787   2.302       .  S
C4786      O4824   1.274       .  A
C4786      O4792   1.276       .  A
O4787      C4794   1.276       .  A
H4788      C4801   1.081       .  S
C4789      O4803   1.234       .  S
C4789      O4804   1.269       .  A
C4789      H4814   1.081       .  S
O4790      C4813   1.267       .  A
O4791     Mg4805   2.185       .  S
O4792     Mg4822   2.310       .  S
C4793      O4806   1.278       .  A
C4793      O4798   1.275       .  A
C4794      O4821   1.274       .  A
Mg4795     O4802   2.160       .  S
Mg4795     O4803   2.178       .  S
Mg4795     O4796   2.310       .  S
Mg4795     O4797   2.298       .  S
Mg4795     O4824   2.286       .  S
O4797      C4801   1.269       .  A
O4798     Mg4805   2.305       .  S
O4799      C4818   1.276       .  A
O4800      C4820   1.276       .  A
O4800     Mg4816   2.306       .  S
O4802     Mg4816   2.183       .  S
O4802      C4813   1.234       .  S
O4803     Mg4822   2.179       .  S
O4804     Mg4816   2.300       .  S
Mg4805     O4821   2.292       .  S
O4806     Mg4822   2.324       .  S
H4807      C4812   1.081       .  S
O4808     Mg4816   2.147       .  S
O4808      C4811   1.233       .  S
H4809      C4811   1.081       .  S
H4810      C4813   1.081       .  S
O4815     Mg4822   2.293       .  S
C4818      O4823   1.270       .  A
O4819      C4820   1.272       .  A
C4825      C4830   1.380       .  A
C4825      C4826   1.404       .  A
C4825      O4831   1.324       .  A
C4826      H4837   1.082       .  S
C4826      C4827   1.406       .  A
C4827      C4836   1.358       .  A
C4827      C4828   1.380       .  A
C4828      C4829   1.404       .  A
C4828      O4834   1.325       .  A
C4829      H4838   1.082       .  S
C4829      C4830   1.406       .  A
C4830      C4833   1.358       .  A
O4831      C4832   1.332       .  A
C4832      C4833   1.396       .  A
C4833      H4839   1.083       .  S
O4834      C4835   1.332       .  A
C4835      C4836   1.395       .  A
C4836      H4840   1.083       .  S
C4841      C4846   1.380       .  A
C4841      C4842   1.399       .  A
C4841      O4847   1.315       .  A
C4842      H4853   1.082       .  S
C4842      C4843   1.399       .  A
C4843      C4852   1.356       .  A
C4843      C4844   1.380       .  A
C4844      C4845   1.406       .  A
C4844      O4850   1.320       .  A
C4845      H4854   1.082       .  S
C4845      C4846   1.405       .  A
C4846      C4849   1.365       .  A
O4847      C4848   1.328       .  A
C4848      C4849   1.393       .  A
C4849      H4855   1.082       .  S
O4850      C4851   1.332       .  A
C4851      C4852   1.392       .  A
C4852      H4856   1.083       .  S
C4857      C4862   1.379       .  A
C4857      C4858   1.406   1_455  A
C4857      O4863   1.327   1_455  A
C4858      H4869   1.082       .  S
C4858      C4859   1.408       .  A
C4859      C4868   1.359       .  A
C4859      C4860   1.379   1_655  A
C4860      C4861   1.410       .  A
C4860      O4866   1.332       .  A
C4861      C4862   1.413       .  A
C4862      C4865   1.363       .  A
O4863      C4864   1.334   1_655  A
C4864      C4865   1.401       .  A
O4866      C4867   1.336   1_455  A
C4867      C4868   1.396       .  A
C4868      H4872   1.083       .  S
C4873      C4874   1.401       .  A
C4873      O4879   1.321       .  A
C4874      H4885   1.082       .  S
C4875      C4884   1.357       .  A
C4875      C4876   1.380       .  A
C4876      C4877   1.406   1_565  A
C4876      O4882   1.324       .  A
C4877      H4886   1.082       .  S
C4877      C4878   1.407       .  A
C4878      C4881   1.362       .  A
O4879      C4880   1.330       .  A
C4881      H4887   1.083       .  S
O4882      C4883   1.333       .  A
C4883      C4884   1.394       .  A
C4884      H4888   1.083       .  S
C4889      C4894   1.378       .  A
C4889      C4890   1.410       .  A
C4889      O4895   1.320       .  A
C4890      H4901   1.082       .  S
C4890      C4891   1.407       .  A
C4891      C4900   1.373       .  A
C4891      C4892   1.378       .  A
C4893      H4902   1.082       .  S
C4894      C4897   1.370       .  A
O4895      C4896   1.335       .  A
C4896      C4897   1.392       .  A
C4899      C4900   1.396       .  A
C4900      H4904   1.082       .  S
C4905      C4910   1.380   1_455  A
C4905      C4906   1.402       .  A
C4905      O4911   1.322       .  A
C4906      H4917   1.082       .  S
C4906      C4907   1.404       .  A
C4907      C4916   1.356       .  A
C4907      C4908   1.380   1_455  A
C4908      C4909   1.405       .  A
C4908      O4914   1.324       .  A
C4909      H4918   1.082       .  S
C4909      C4910   1.406       .  A
C4910      C4913   1.361       .  A
O4911      C4912   1.331   1_455  A
C4912      C4913   1.394       .  A
C4913      H4919   1.083       .  S
O4914      C4915   1.333   1_655  A
C4915      C4916   1.395       .  A
C4916      H4920   1.083       .  S
C4921      C4926   1.378       .  A
C4921      C4922   1.408       .  A
C4921      O4927   1.325       .  A
C4922      C4923   1.408       .  A
C4923      C4924   1.379       .  A
C4924      C4925   1.405       .  A
C4924      O4930   1.325       .  A
C4925      H4934   1.082       .  S
C4925      C4926   1.407       .  A
C4926      C4929   1.360       .  A
O4927      C4928   1.335       .  A
C4928      C4929   1.399       .  A
C4929      H4935   1.083       .  S
C4931      C4932   1.395       .  A
C4932      H4936   1.083       .  S
C4937      C4942   1.379       .  A
C4937      O4943   1.326       .  A
C4938      H4949   1.082       .  S
C4938      C4939   1.408       .  A
C4939      C4948   1.365   1_455  A
C4940      C4941   1.407       .  A
C4940      O4946   1.326       .  A
C4941      H4950   1.082       .  S
C4941      C4942   1.409       .  A
C4942      C4945   1.362       .  A
O4943      C4944   1.334       .  A
C4944      C4945   1.399       .  A
C4945      H4951   1.083       .  S
C4947      C4948   1.395   1_455  A
C4948      H4952   1.082       .  S
C4953      C4958   1.378   1_545  A
C4953      C4954   1.405       .  A
C4953      O4959   1.315       .  A
C4954      H4965   1.082       .  S
C4954      C4955   1.402   1_545  A
C4955      C4964   1.367       .  A
C4955      C4956   1.378       .  A
C4956      C4957   1.410       .  A
C4956      O4962   1.317       .  A
C4957      H4966   1.082       .  S
C4957      C4958   1.405       .  A
C4958      C4961   1.373       .  A
C4961      H4967   1.082       .  S
O4962      C4963   1.336       .  A
C4963      C4964   1.393       .  A
C4964      H4968   1.083   1_565  S
C4969      C4974   1.380       .  A
C4969      C4970   1.406       .  A
C4969      O4975   1.317       .  A
C4970      H4981   1.083       .  S
C4970      C4971   1.404       .  A
C4971      C4980   1.369       .  A
C4971      C4972   1.380       .  A
C4972      C4973   1.404       .  A
C4972      O4978   1.315       .  A
C4973      H4982   1.082       .  S
C4973      C4974   1.401       .  A
C4974      C4977   1.366       .  A
O4975      C4976   1.332       .  A
C4976      C4977   1.390       .  A
C4977      H4983   1.082       .  S
O4978      C4979   1.332       .  A
C4979      C4980   1.393       .  A
C4980      H4984   1.083       .  S
C4985      C4990   1.380       .  A
C4985      C4986   1.404       .  A
C4985      O4991   1.324       .  A
C4986      H4997   1.083       .  S
C4986      C4987   1.406       .  A
C4987      C4996   1.357       .  A
C4987      C4988   1.380       .  A
C4988      O4994   1.326       .  A
C4989      H4998   1.082       .  S
O4991      C4992   1.332       .  A
C4993      H4999   1.083       .  S
O4994      C4995   1.332       .  A
C4995      C4996   1.395       .  A
C4996      H5000   1.083       .  S
C5001      C5006   1.379       .  A
C5001      C5002   1.405       .  A
C5001      O5007   1.317       .  A
C5002      H5013   1.082       .  S
C5002      C5003   1.404       .  A
C5003      C5012   1.367       .  A
C5003      C5004   1.379       .  A
C5004      C5005   1.406       .  A
C5004      O5010   1.316       .  A
C5005      H5014   1.082       .  S
C5005      C5006   1.402       .  A
C5006      C5009   1.368       .  A
O5007      C5008   1.332       .  A
C5008      C5009   1.391       .  A
C5009      H5015   1.082       .  S
O5010      C5011   1.334       .  A
C5011      C5012   1.393       .  A
C5012      H5016   1.083       .  S
C5017      C5022   1.380       .  A
C5017      C5018   1.406       .  A
C5018      C5019   1.408       .  A
C5019      C5028   1.363       .  A
C5019      C5020   1.380       .  A
C5020      C5021   1.406       .  A
C5020      O5026   1.324       .  A
C5021      H5030   1.082       .  S
C5021      C5022   1.406       .  A
C5022      C5025   1.362       .  A
C5024      C5025   1.395       .  A
C5025      H5031   1.083       .  S
O5026      C5027   1.333       .  A
C5027      C5028   1.397       .  A
C5028      H5032   1.083       .  S
C5033      C5038   1.379       .  A
C5033      C5034   1.404       .  A
C5033      O5039   1.317       .  A
C5034      H5045   1.082       .  S
C5034      C5035   1.402       .  A
C5035      C5044   1.363       .  A
C5035      C5036   1.379       .  A
C5036      C5037   1.409       .  A
C5036      O5042   1.324       .  A
C5037      H5046   1.082       .  S
C5037      C5038   1.409       .  A
C5038      C5041   1.369       .  A
O5039      C5040   1.333       .  A
C5040      C5041   1.395       .  A
C5041      H5047   1.082       .  S
O5042      C5043   1.335       .  A
C5043      C5044   1.393       .  A
C5044      H5048   1.083       .  S
C5049      C5054   1.379       .  A
C5049      C5050   1.404       .  A
C5049      O5055   1.315       .  A
C5050      H5061   1.082       .  S
C5050      C5051   1.401       .  A
C5051      C5060   1.364       .  A
C5051      C5052   1.379       .  A
C5052      C5053   1.406       .  A
C5052      O5058   1.320       .  A
C5053      H5062   1.082       .  S
C5053      C5054   1.405       .  A
C5054      C5057   1.367       .  A
O5055      C5056   1.333       .  A
C5056      C5057   1.394       .  A
C5057      H5063   1.083       .  S
O5058      C5059   1.332       .  A
C5059      C5060   1.391       .  A
C5060      H5064   1.082       .  S
C5065      C5070   1.380       .  A
C5065      C5066   1.404       .  A
C5065      O5071   1.326       .  A
C5066      H5077   1.082       .  S
C5066      C5067   1.406       .  A
C5067      C5076   1.358       .  A
C5067      C5068   1.380       .  A
C5068      C5069   1.405       .  A
C5068      O5074   1.327       .  A
C5069      H5078   1.082       .  S
C5069      C5070   1.408       .  A
C5070      C5073   1.359       .  A
O5071      C5072   1.333       .  A
C5072      C5073   1.397       .  A
C5073      H5079   1.083       .  S
O5074      C5075   1.333       .  A
C5075      C5076   1.395       .  A
C5076      H5080   1.083       .  S
C5081      C5086   1.381       .  A
C5081      C5082   1.404       .  A
C5081      O5087   1.323   1_545  A
C5082      H5093   1.082   1_545  S
C5082      C5083   1.405       .  A
C5083      C5092   1.360       .  A
C5083      C5084   1.381       .  A
C5084      C5085   1.404       .  A
C5085      C5086   1.406       .  A
C5086      C5089   1.360       .  A
O5087      C5088   1.332       .  A
C5088      C5089   1.394   1_565  A
C5089      H5095   1.083       .  S
C5091      C5092   1.394       .  A
C5092      H5096   1.083       .  S
C5097      C5102   1.379       .  A
C5097      C5098   1.406       .  A
C5097      O5103   1.326       .  A
C5098      C5099   1.408       .  A
C5099      C5108   1.362       .  A
C5099      C5100   1.379       .  A
C5100      C5101   1.403       .  A
C5100      O5106   1.321       .  A
C5101      H5110   1.082       .  S
C5101      C5102   1.403       .  A
C5102      C5105   1.356       .  A
O5103      C5104   1.333       .  A
C5104      C5105   1.394       .  A
C5105      H5111   1.083       .  S
O5106      C5107   1.332       .  A
C5107      C5108   1.397       .  A
C5108      H5112   1.083       .  S
C5113      C5118   1.380       .  A
C5113      C5114   1.403       .  A
C5113      O5119   1.321       .  A
C5114      C5115   1.404       .  A
C5115      C5124   1.359       .  A
C5115      C5116   1.380       .  A
C5116      C5117   1.405       .  A
C5116      O5122   1.321       .  A
C5117      H5126   1.082       .  S
C5117      C5118   1.405       .  A
C5118      C5121   1.362       .  A
O5119      C5120   1.331       .  A
C5120      C5121   1.393       .  A
C5121      H5127   1.083       .  S
O5122      C5123   1.332       .  A
C5123      C5124   1.394       .  A
C5124      H5128   1.083       .  S
C5129      C5134   1.378       .  A
C5129      C5130   1.410       .  A
C5129      O5135   1.320       .  A
C5130      H5141   1.082       .  S
C5130      C5131   1.407       .  A
C5131      C5140   1.373       .  A
C5131      C5132   1.378       .  A
C5132      C5133   1.409       .  A
C5132      O5138   1.318       .  A
C5133      H5142   1.082       .  S
C5133      C5134   1.405       .  A
C5134      C5137   1.373       .  A
O5135      C5136   1.336       .  A
C5136      C5137   1.394       .  A
C5137      H5143   1.082       .  S
O5138      C5139   1.336       .  A
C5139      C5140   1.395       .  A
C5140      H5144   1.082       .  S
C5145      C5150   1.378       .  A
C5145      C5146   1.410   1_545  A
C5145      O5151   1.321   1_545  A
C5146      H5157   1.082       .  S
C5146      C5147   1.407   1_565  A
C5147      C5156   1.373       .  A
C5147      C5148   1.378       .  A
C5148      C5149   1.410       .  A
C5148      O5154   1.319       .  A
C5149      H5158   1.082       .  S
C5149      C5150   1.407       .  A
C5150      C5153   1.373       .  A
O5151      C5152   1.335   1_565  A
C5152      C5153   1.395       .  A
C5153      H5159   1.082       .  S
O5154      C5155   1.337       .  A
C5155      C5156   1.396       .  A
C5156      H5160   1.082   1_545  S
C5161      C5166   1.380       .  A
C5161      C5162   1.401       .  A
C5161      O5167   1.317       .  A
C5162      H5173   1.082       .  S
C5162      C5163   1.401       .  A
C5163      C5172   1.358       .  A
C5163      C5164   1.379       .  A
C5164      C5165   1.409       .  A
C5164      O5170   1.323       .  A
C5165      H5174   1.082       .  S
C5165      C5166   1.407       .  A
C5166      C5169   1.368       .  A
O5167      C5168   1.330       .  A
C5168      C5169   1.394       .  A
C5169      H5175   1.082       .  S
O5170      C5171   1.334       .  A
C5171      C5172   1.393       .  A
C5172      H5176   1.083       .  S
C5177      C5182   1.379       .  A
C5177      C5178   1.409       .  A
C5177      O5183   1.318       .  A
C5178      H5189   1.082       .  S
C5178      C5179   1.406       .  A
C5179      C5188   1.373       .  A
C5179      C5180   1.378       .  A
C5180      C5181   1.408       .  A
C5180      O5186   1.316       .  A
C5181      H5190   1.082       .  S
C5181      C5182   1.404       .  A
C5182      C5185   1.371       .  A
O5183      C5184   1.334       .  A
C5184      C5185   1.393       .  A
C5185      H5191   1.082       .  S
O5186      C5187   1.335       .  A
C5187      C5188   1.396       .  A
C5188      H5192   1.082       .  S
C5193      C5198   1.378       .  A
C5193      C5194   1.409       .  A
C5193      O5199   1.319       .  A
C5194      C5195   1.406       .  A
C5195      C5204   1.371       .  A
C5195      C5196   1.379       .  A
C5196      C5197   1.408       .  A
C5196      O5202   1.319       .  A
C5197      H5206   1.082       .  S
C5197      C5198   1.406       .  A
C5198      C5201   1.370       .  A
O5199      C5200   1.336       .  A
C5200      C5201   1.394       .  A
C5201      H5207   1.082       .  S
O5202      C5203   1.334       .  A
C5203      C5204   1.394       .  A
C5204      H5208   1.082       .  S
C5209      C5214   1.380   1_565  A
C5209      C5210   1.404       .  A
C5209      O5215   1.318       .  A
C5210      H5221   1.082       .  S
C5210      C5211   1.403   1_565  A
C5211      C5220   1.364       .  A
C5211      C5212   1.380       .  A
C5212      C5213   1.404       .  A
C5212      O5218   1.317       .  A
C5213      C5214   1.402       .  A
C5214      C5217   1.364       .  A
O5215      C5216   1.332       .  A
C5216      C5217   1.391   1_565  A
C5217      H5223   1.083       .  S
O5218      C5219   1.332       .  A
C5219      C5220   1.392       .  A
C5220      H5224   1.083   1_545  S
C5225      C5226   1.403       .  A
C5226      H5237   1.082       .  S
C5226      C5227   1.404       .  A
C5227      C5236   1.361       .  A
C5227      C5228   1.381       .  A
C5228      C5229   1.404   1_655  A
C5228      O5234   1.321       .  A
C5229      H5238   1.082       .  S
C5230      C5233   1.361       .  A
O5231      C5232   1.331       .  A
C5232      C5233   1.393       .  A
C5233      H5239   1.083       .  S
O5234      C5235   1.331       .  A
C5235      C5236   1.393       .  A
C5236      H5240   1.083       .  S
C5241      C5246   1.380       .  A
C5241      C5242   1.407       .  A
C5242      C5243   1.409       .  A
C5243      C5252   1.362   1_455  A
C5243      C5244   1.380       .  A
C5244      C5245   1.405       .  A
C5244      O5250   1.325   1_455  A
C5245      H5254   1.082       .  S
C5245      C5246   1.407       .  A
C5246      C5249   1.361       .  A
C5248      C5249   1.395       .  A
C5249      H5255   1.083       .  S
O5250      C5251   1.333       .  A
C5251      C5252   1.398       .  A
C5252      H5256   1.083       .  S
C5257      C5262   1.380       .  A
C5257      C5258   1.403       .  A
C5257      O5263   1.317       .  A
C5258      H5269   1.082       .  S
C5258      C5259   1.402       .  A
C5259      C5268   1.362       .  A
C5259      C5260   1.381       .  A
C5260      C5261   1.404       .  A
C5260      O5266   1.319       .  A
C5261      H5270   1.082       .  S
C5261      C5262   1.403       .  A
C5262      C5265   1.364       .  A
O5263      C5264   1.332       .  A
C5264      C5265   1.392       .  A
C5265      H5271   1.083       .  S
O5266      C5267   1.331       .  A
C5267      C5268   1.391       .  A
C5268      H5272   1.083       .  S
C5273      C5278   1.379       .  A
C5273      C5274   1.407       .  A
C5273      O5279   1.325       .  A
C5274      H5285   1.082       .  S
C5274      C5275   1.407       .  A
C5275      C5276   1.380       .  A
C5276      C5277   1.402       .  A
C5276      O5282   1.322       .  A
C5277      H5286   1.082       .  S
C5277      C5278   1.404       .  A
C5278      C5281   1.357       .  A
O5279      C5280   1.334       .  A
C5280      C5281   1.396       .  A
C5281      H5287   1.083       .  S
C5283      C5284   1.395       .  A
C5284      H5288   1.083       .  S
C5289      C5294   1.382       .  A
C5289      C5290   1.403       .  A
C5289      O5295   1.313       .  A
C5290      H5301   1.082       .  S
C5290      C5291   1.399       .  A
C5291      C5300   1.363       .  A
C5291      C5292   1.379       .  A
C5292      C5293   1.400       .  A
C5292      O5298   1.314       .  A
C5293      H5302   1.083       .  S
C5293      C5294   1.400       .  A
C5294      C5297   1.361       .  A
O5295      C5296   1.331       .  A
C5296      C5297   1.391       .  A
C5297      H5303   1.083       .  S
O5298      C5299   1.329       .  A
C5299      C5300   1.390       .  A
C5300      H5304   1.082       .  S
C5305      C5310   1.379       .  A
C5305      C5306   1.409       .  A
C5305      O5311   1.328       .  A
C5306      H5317   1.082       .  S
C5306      C5307   1.411       .  A
C5307      C5316   1.365       .  A
C5307      C5308   1.378       .  A
C5308      C5309   1.407       .  A
C5308      O5314   1.326       .  A
C5309      H5318   1.082       .  S
C5309      C5310   1.408       .  A
C5310      C5313   1.364       .  A
O5311      C5312   1.335       .  A
C5312      C5313   1.396       .  A
C5313      H5319   1.083       .  S
O5314      C5315   1.334       .  A
C5315      C5316   1.400       .  A
C5316      H5320   1.083       .  S
C5321      C5326   1.379       .  A
C5321      C5322   1.402       .  A
C5322      H5333   1.082       .  S
C5322      C5323   1.403       .  A
C5323      C5332   1.359       .  A
C5323      C5324   1.379       .  A
C5324      C5325   1.406       .  A
C5324      O5330   1.321       .  A
C5325      H5334   1.082       .  S
C5325      C5326   1.406       .  A
C5326      C5329   1.363       .  A
O5327      C5328   1.331       .  A
C5329      H5335   1.083       .  S
O5330      C5331   1.333       .  A
C5331      C5332   1.394       .  A
C5332      H5336   1.083       .  S
C5337      C5342   1.381       .  A
C5337      C5338   1.403       .  A
C5337      O5343   1.323       .  A
C5338      C5339   1.405       .  A
C5339      C5348   1.359       .  A
C5339      C5340   1.380       .  A
C5340      C5341   1.406       .  A
C5340      O5346   1.325       .  A
C5341      H5350   1.083       .  S
C5341      C5342   1.407       .  A
C5342      C5345   1.361       .  A
O5343      C5344   1.331       .  A
C5344      C5345   1.395       .  A
C5345      H5351   1.083       .  S
O5346      C5347   1.333       .  A
C5347      C5348   1.395       .  A
C5353      C5358   1.381       .  A
C5353      C5354   1.401       .  A
C5353      O5359   1.318       .  A
C5354      H5365   1.082       .  S
C5354      C5355   1.400       .  A
C5355      C5364   1.355       .  A
C5355      C5356   1.380       .  A
C5356      C5357   1.403       .  A
C5356      O5362   1.323       .  A
C5357      H5366   1.082       .  S
C5357      C5358   1.406       .  A
C5358      C5361   1.358       .  A
O5359      C5360   1.330       .  A
C5360      C5361   1.396       .  A
C5361      H5367   1.083       .  S
O5362      C5363   1.331       .  A
C5363      C5364   1.390       .  A
C5364      H5368   1.083       .  S
C5369      C5374   1.378   1_655  A
C5369      O5375   1.318       .  A
C5370      H5381   1.082       .  S
C5370      C5371   1.405       .  A
C5371      C5380   1.372       .  A
C5372      C5373   1.403       .  A
C5372      O5378   1.314       .  A
C5373      H5382   1.082       .  S
C5373      C5374   1.401       .  A
C5374      C5377   1.364       .  A
O5375      C5376   1.336       .  A
C5376      C5377   1.393   1_655  A
C5377      H5383   1.083       .  S
C5379      C5380   1.393       .  A
C5380      H5384   1.082       .  S
C5385      C5390   1.380       .  A
C5385      C5386   1.406       .  A
C5385      O5391   1.323       .  A
C5386      H5397   1.082       .  S
C5386      C5387   1.406       .  A
C5387      C5396   1.365       .  A
C5387      C5388   1.380       .  A
C5388      C5389   1.403       .  A
C5388      O5394   1.320       .  A
C5389      H5398   1.083       .  S
C5389      C5390   1.403       .  A
C5390      C5393   1.360       .  A
O5391      C5392   1.332       .  A
C5392      C5393   1.394       .  A
C5393      H5399   1.083       .  S
O5394      C5395   1.331       .  A
C5395      C5396   1.394       .  A
C5396      H5400   1.083       .  S
