geometry optimzed in LAMMPS
_audit_creation_date              2020-11-30 
_audit_creation_method            'lammps2cif' 
_symmetry_space_group_name_H-M    'P1' 
_symmetry_Int_Tables_number       1 
_symmetry_cell_setting            triclinic 
loop_ 
_symmetry_equiv_pos_as_xyz 
  x,y,z 
_cell_length_a                    29.06066971 
_cell_length_b                    29.012617380748324 
_cell_length_c                    28.348544881164027 
_cell_angle_alpha                 90.90829171491211 
_cell_angle_beta                  91.3193246932989 
_cell_angle_gamma                 90.12279526013826 
loop_ 
_atom_site_label 
_atom_site_type_symbol 
_atom_site_fract_x 
_atom_site_fract_y 
_atom_site_fract_z 
_atom_site_charge 
O1          O  0.51345641  0.54252705  0.09664689    -0.78900
O2          O  0.45092489  0.47276683  0.88626072    -0.78900
O3          O  0.49632833  0.60751621  0.95281579    -0.78900
O4          O  0.38075709  0.49821288  0.02624592    -0.78800
O5          O  0.47663033  0.55899649  0.89749540    -0.79000
O6          O  0.42830076  0.51355281  0.08406423    -0.78900
O7          O  0.39611125  0.49102212  0.93401195    -0.78900
O8          O  0.50068409  0.59591229  0.04460777    -0.78900
C9          C  0.50576786  0.58461010  0.08724295     1.10800
C10         C  0.40890209  0.48174942  0.89273756     1.10700
C11         C  0.47936729  0.60002173  0.91263650     1.10800
C12         C  0.38751348  0.51144491  0.06809358     1.10700
O13         O  0.48865517  0.45037520  0.10881081    -0.78900
O14         O  0.54043407  0.49763349  0.87497076    -0.78900
O15         O  0.57681275  0.53331738  0.03408240    -0.78900
O16         O  0.45676146  0.41270656  0.95069321    -0.78900
O17         O  0.52632410  0.43950858  0.94552141    -0.78900
O18         O  0.54790178  0.46476910  0.03961003    -0.78900
O19         O  0.44511553  0.42132612  0.04946674    -0.78800
O20         O  0.57245611  0.54019040  0.93323166    -0.78900
Co21       Co  0.48712003  0.48934641  0.05642068     1.51500
Co22       Co  0.50193362  0.50085216  0.92693806     1.51700
Co23       Co  0.53115652  0.56395112  0.99106014     1.51600
Co24       Co  0.42480013  0.46116760  0.99006388     1.51500
O25         O  0.47651184  0.51384077  0.99115999    -1.40800
C26         C  0.46561066  0.41704426  0.09075871     1.10800
C27         C  0.57524131  0.51871206  0.89218347     1.10800
C28         C  0.58079837  0.49232723  0.04770322     1.10800
C29         C  0.49819990  0.40653233  0.93913439     1.10800
C30         C  0.22877966  0.46604134  0.16901194     0.81500
N31         N  0.20194558  0.47895550  0.20636185    -0.76800
C32         C  0.16578665  0.45136882  0.21902029     0.83900
N33         N  0.15809474  0.41149411  0.19438757    -0.76800
C34         C  0.18398257  0.39879445  0.15750746     0.84000
N35         N  0.21871233  0.42655954  0.14444459    -0.78500
C36         C  0.80592920  0.44859446  0.21264557     0.81500
N37         N  0.82387107  0.41047463  0.19132882    -0.76800
C38         C  0.80043790  0.38801825  0.15610171     0.83900
N39         N  0.75900004  0.40381618  0.14184228    -0.76800
C40         C  0.73977633  0.44125298  0.16230640     0.84000
N41         N  0.76344961  0.46435684  0.19793935    -0.78500
C42         C  0.25520540  0.44404619  0.76952225     0.81500
N43         N  0.23730910  0.40660028  0.79074060    -0.76800
C44         C  0.19661094  0.38821732  0.77561558     0.83900
N45         N  0.17368213  0.40762261  0.73909569    -0.76800
C46         C  0.19040907  0.44525168  0.71742347     0.84000
N47         N  0.23128887  0.46424401  0.73310899    -0.78500
C48         C  0.80051886  0.46659233  0.73464539     0.81500
N49         N  0.81704738  0.42842510  0.75621836    -0.76800
C50         C  0.79724303  0.41172166  0.79510943     0.83900
N51         N  0.76071210  0.43378020  0.81366320    -0.76800
C52         C  0.74230381  0.47140696  0.79255302     0.84000
N53         N  0.76219522  0.48799493  0.75248182    -0.78500
N54         N  0.99309035  0.26304842  0.88879732    -0.35300
N55         N  0.92582722  0.25787779  0.96475616    -0.55900
N56         N  0.99385016  0.25600083  0.03995639    -0.35300
N57         N  0.06112941  0.26141030  0.96386357    -0.55900
C58         C  0.95522380  0.28307436  0.86974804     0.28200
C59         C  0.03004395  0.28264129  0.86876129     0.28300
C60         C  0.95627247  0.27243656  0.06207933     0.28200
C61         C  0.03118016  0.27546184  0.06168710     0.28200
C62         C  0.89917804  0.25274322  0.92551377     0.36900
C63         C  0.89937835  0.24734459  0.00159663     0.36900
C64         C  0.08790248  0.25527458  0.92598370     0.36900
C65         C  0.08804376  0.25347127  0.00221251     0.36900
C66         C  0.96814181  0.31443280  0.83599411    -0.20600
C67         C  0.01537254  0.31424100  0.83545337    -0.20600
C68         C  0.97022517  0.30133882  0.09927548    -0.20600
C69         C  0.01739122  0.30301960  0.09914772    -0.20600
C70         C  0.85563825  0.23781463  0.93720690    -0.21700
C71         C  0.85589049  0.23384022  0.98554034    -0.21700
C72         C  0.13173217  0.24187167  0.94025531    -0.21700
C73         C  0.13194902  0.24131218  0.98873145    -0.21700
C74         C  0.90948724  0.27498785  0.88338168    -0.17000
C75         C  0.07649417  0.27392590  0.88162395    -0.17000
C76         C  0.07717660  0.27040202  0.04729592    -0.17000
C77         C  0.90993147  0.26380812  0.04766387    -0.17000
H78         H  0.94598176  0.33635342  0.81494538     0.15900
H79         H  0.03630656  0.33637724  0.81428745     0.15900
H80         H  0.94903254  0.32115453  0.12292634     0.15900
H81         H  0.03883789  0.32382521  0.12285619     0.15900
H82         H  0.82583762  0.23435028  0.91378517     0.14200
H83         H  0.82623012  0.22695811  0.00676761     0.14200
H84         H  0.16145676  0.23757724  0.91830300     0.14200
H85         H  0.16183138  0.23647719  0.01160486     0.14200
H86         H  0.99360643  0.23765165  0.91443154     0.27400
H87         H  0.99414007  0.23320539  0.01114660     0.27400
O88         O  0.03777562  0.51872276  0.40163835    -0.78900
O89         O  0.87100770  0.55723678  0.45776382    -0.78900
O90         O  0.92988035  0.44841521  0.39057376    -0.78900
O91         O  0.03378458  0.58596239  0.47804292    -0.78800
O92         O  0.93341263  0.52307653  0.39890455    -0.79000
O93         O  0.09843576  0.54582732  0.47349953    -0.78900
O94         O  0.93200685  0.59157081  0.49310206    -0.78900
O95         O  0.02343763  0.44529380  0.38987778    -0.78900
C96         C  0.04054946  0.48289734  0.37561148     1.10800
C97         C  0.89079413  0.59353854  0.47359745     1.10700
C98         C  0.92165033  0.48805306  0.37443479     1.10800
C99         C  0.07854673  0.58468714  0.47951734     1.10700
O100        O  0.06243179  0.48146908  0.53238232    -0.78900
O101        O  0.87939428  0.46070128  0.45832858    -0.78900
O102        O  0.02531060  0.40255406  0.48052020    -0.78900
O103        O  0.95016768  0.53389176  0.57626069    -0.78900
O104        O  0.89493560  0.50762979  0.53142536    -0.78900
O105        O  0.08163063  0.44644195  0.45665816    -0.78900
O106        O  0.04128540  0.54189741  0.56883149    -0.78800
O107        O  0.92939365  0.40863548  0.48285041    -0.78900
Co108      Co  0.04603787  0.50491579  0.46973942     1.51500
Co109      Co  0.92032360  0.51686391  0.46695514     1.51700
Co110      Co  0.97726991  0.43019688  0.43972833     1.51600
Co111      Co  0.98842201  0.55531139  0.52324810     1.51500
O112        O  0.98129616  0.48975838  0.48170472    -1.40800
C113        C  0.06515067  0.50606703  0.56839340     1.10800
C114        C  0.88817202  0.42234178  0.47783987     1.10800
C115        C  0.06770997  0.40796030  0.47217450     1.10800
C116        C  0.91058718  0.51670523  0.57213953     1.10800
C117        C  0.51839082  0.74461036  0.21196339     0.81500
N118        N  0.49172580  0.76393929  0.24652954    -0.76800
C119        C  0.50237066  0.80718985  0.26407961     0.83900
N120        N  0.53866498  0.83013415  0.24693233    -0.76800
C121        C  0.56504868  0.81138148  0.21316220     0.84000
N122        N  0.55480312  0.76869216  0.19574020    -0.78500
C123        C  0.49165265  0.24428005  0.18787417     0.81500
N124        N  0.52588447  0.21978803  0.16739209    -0.76800
C125        C  0.54111713  0.17996111  0.18638402     0.83900
N126        N  0.52180086  0.16393304  0.22575682    -0.76800
C127        C  0.48809003  0.18786943  0.24735119     0.84000
N128        N  0.47306577  0.22867379  0.22876734    -0.78500
C129        C  0.52751981  0.18056645  0.77138180     0.81500
N130        N  0.51605223  0.22161731  0.79278716    -0.76800
C131        C  0.54495089  0.24092400  0.82696676     0.83900
N132        N  0.58481933  0.21866814  0.83866996    -0.76800
C133        C  0.59623943  0.17825117  0.81715904     0.84000
N134        N  0.56733988  0.15979040  0.78400274    -0.78500
C135        C  0.50931233  0.82516225  0.75840443     0.81500
N136        N  0.54573084  0.84285383  0.78305128    -0.76800
C137        C  0.56225508  0.82242779  0.82216933     0.83900
N138        N  0.54152594  0.78388259  0.83779512    -0.76800
C139        C  0.50457523  0.76535944  0.81375379     0.84000
N140        N  0.48846433  0.78583837  0.77337283    -0.78500
N141        N  0.71367162  0.06930803  0.01474749    -0.35300
N142        N  0.71960234  0.99241200  0.94937437    -0.55900
N143        N  0.70850389  0.92173464  0.02169794    -0.35300
N144        N  0.70014675  0.99858099  0.08659482    -0.55900
C145        C  0.70395518  0.08923252  0.97282946     0.28200
C146        C  0.68890908  0.09206536  0.04755532     0.28300
C147        C  0.69275689  0.89954956  0.98225561     0.28200
C148        C  0.68724020  0.90233371  0.05845556     0.28200
C149        C  0.73369305  0.02700380  0.92177009     0.36900
C150        C  0.72523888  0.95284330  0.92454470     0.36900
C151        C  0.70142108  0.03785850  0.11263695     0.36900
C152        C  0.70420422  0.96367426  0.11730308     0.36900
C153        C  0.67438147  0.12624438  0.97984535    -0.20600
C154        C  0.66516239  0.12810527  0.02688832    -0.20600
C155        C  0.66301857  0.86433823  0.99433753    -0.20600
C156        C  0.65952573  0.86610963  0.04234337    -0.20600
C157        C  0.74963328  0.00908947  0.87953794    -0.21700
C158        C  0.74346431  0.96207772  0.88102280    -0.21700
C159        C  0.70684016  0.02809592  0.16004739    -0.21700
C160        C  0.70942778  0.98096138  0.16299836    -0.21700
C161        C  0.71844147  0.07284113  0.92816309    -0.17000
C162        C  0.68535774  0.07998431  0.09528503    -0.17000
C163        C  0.69010485  0.91830956  0.10575494    -0.17000
C164        C  0.70235457  0.91175164  0.93548440    -0.17000
H165        H  0.65864041  0.14843357  0.95388535     0.15900
H166        H  0.64198518  0.15220965  0.04353005     0.15900
H167        H  0.64426072  0.84074698  0.97101015     0.15900
H168        H  0.63714812  0.84450546  0.06251980     0.15900
H169        H  0.75970661  0.02831916  0.84901429     0.14200
H170        H  0.74839088  0.93781658  0.85218669     0.14200
H171        H  0.70565926  0.05229005  0.18945394     0.14200
H172        H  0.71025425  0.96148236  0.19525923     0.14200
H173        H  0.73511265  0.04108886  0.02047443     0.27400
H174        H  0.73162876  0.94924639  0.02338693     0.27400
C175        C  0.17099813  0.75022509  0.55128594     0.81500
N176        N  0.21302008  0.76872600  0.54092573    -0.76800
C177        C  0.22780585  0.80840030  0.56353045     0.83900
N178        N  0.20103314  0.82816630  0.59664259    -0.76800
C179        C  0.15968533  0.81037729  0.60718488     0.84000
N180        N  0.14436666  0.77190782  0.58380301    -0.78500
C181        C  0.71030171  0.22896532  0.54946688     0.81500
N182        N  0.73317709  0.20846737  0.58582256    -0.76800
C183        C  0.77121087  0.22822415  0.60587455     0.83900
N184        N  0.78657279  0.26858261  0.58892769    -0.76800
C185        C  0.76449795  0.28977649  0.55259372     0.84000
N186        N  0.72629809  0.26952435  0.53220662    -0.78500
C187        C  0.17624767  0.26930542  0.56019370     0.81500
N188        N  0.21511924  0.24638796  0.54839673    -0.76800
C189        C  0.23048579  0.21078828  0.57530155     0.83900
N190        N  0.20625150  0.19816957  0.61360157    -0.76800
C191        C  0.16743482  0.22111889  0.62563165     0.84000
N192        N  0.15269602  0.25629777  0.59844460    -0.78500
C193        C  0.72697306  0.80994481  0.52341144     0.81500
N194        N  0.74762686  0.77378695  0.50061839    -0.76800
C195        C  0.78973107  0.75855639  0.51648297     0.83900
N196        N  0.81009282  0.77955390  0.55463662    -0.76800
C197        C  0.78959282  0.81495635  0.57744972     0.84000
N198        N  0.74821845  0.83016893  0.56153490    -0.78500
N199        N  0.96547085  0.08994384  0.72562286    -0.35300
N200        N  0.04048044  0.02215033  0.72907279    -0.55900
N201        N  0.96797284  0.95366378  0.71813353    -0.35300
N202        N  0.89271450  0.02043279  0.72097649    -0.55900
C203        C  0.00204644  0.11533667  0.74090035     0.28200
C204        C  0.92712659  0.11453317  0.73460592     0.28300
C205        C  0.00555290  0.92761345  0.72675414     0.28200
C206        C  0.93076561  0.92681557  0.72452732     0.28200
C207        C  0.06257162  0.06090295  0.71628314     0.36900
C208        C  0.06375593  0.98631667  0.70991244     0.36900
C209        C  0.87024952  0.05777739  0.70427296     0.36900
C210        C  0.87152338  0.98322829  0.70095068     0.36900
C211        C  0.98671632  0.15615910  0.76128650    -0.20600
C212        C  0.93924909  0.15576284  0.75697381    -0.20600
C213        C  0.99222298  0.88397327  0.74023324    -0.20600
C214        C  0.94477216  0.88347819  0.73888724    -0.20600
C215        C  0.10047697  0.04939508  0.68953855    -0.21700
C216        C  0.10134409  0.00214952  0.68580728    -0.21700
C217        C  0.83410517  0.04413967  0.67439540    -0.21700
C218        C  0.83482014  0.99691955  0.67243470    -0.21700
C219        C  0.04779133  0.10632660  0.72744361    -0.17000
C220        C  0.88329135  0.10388343  0.71470554    -0.17000
C221        C  0.88658372  0.93730055  0.70628981    -0.17000
C222        C  0.05001749  0.93969752  0.71256706    -0.17000
H223        H  0.00770163  0.18463533  0.77449159     0.15900
H224        H  0.91646669  0.18370342  0.76642023     0.15900
H225        H  0.01436743  0.85468448  0.74668419     0.15900
H226        H  0.92310116  0.85363573  0.74382942     0.15900
H227        H  0.12413403  0.07235986  0.67266358     0.14200
H228        H  0.12579977  0.98196746  0.66605987     0.14200
H229        H  0.81069000  0.06569359  0.65444839     0.14200
H230        H  0.81203018  0.97542963  0.65082869     0.14200
H231        H  0.96684828  0.06083875  0.70445668     0.27400
H232        H  0.96780240  0.98505932  0.70181700     0.27400
O233        O  0.48457112  0.92521018  0.45272257    -0.78900
O234        O  0.52214487  0.11327348  0.52710438    -0.78900
O235        O  0.42702864  0.05221196  0.41810408    -0.78900
O236        O  0.57563713  0.96639542  0.50249890    -0.78800
O237        O  0.48212954  0.09194785  0.45006030    -0.79000
O238        O  0.52892111  0.91218069  0.52586968    -0.78900
O239        O  0.57184225  0.06250065  0.50290476    -0.84600
O240        O  0.42726854  0.95910718  0.41975949    -0.78900
C241        C  0.45759185  0.92824469  0.41831812     1.10800
C242        C  0.56201197  0.10409180  0.51209131     1.10700
C243        C  0.45630462  0.08405720  0.41521607     1.10800
C244        C  0.56774470  0.92401304  0.50959528     1.10700
O245        O  0.45996077  0.96244494  0.58340365    -0.78900
O246        O  0.42770194  0.12442084  0.51795610    -0.78900
O247        O  0.38930888  0.95766500  0.51498217    -0.78900
O248        O  0.52903079  0.06047723  0.59481600    -0.78900
O249        O  0.45489853  0.06160558  0.58160313    -0.78900
O250        O  0.43259460  0.89465792  0.52287139    -0.78900
O251        O  0.53401776  0.96700854  0.59329874    -0.78800
O252        O  0.38654055  0.05942400  0.51213485    -0.78900
Co253      Co  0.46955107  0.94777633  0.51583130     1.51500
Co254      Co  0.46644822  0.07293033  0.51372962     1.51700
Co255      Co  0.41718062  0.00753356  0.47085361     1.51600
Co256      Co  0.54844361  0.01402970  0.54467668     1.51500
O257        O  0.48880887  0.01046466  0.50200135    -1.40800
C258        C  0.49550204  0.95310277  0.60752125     1.10800
C259        C  0.38926313  0.10382843  0.51957830     1.10800
C260        C  0.39321488  0.91369480  0.52319789     1.10800
C261        C  0.48895571  0.07068602  0.60855898     1.10800
C262        C  0.64150616  0.81655204  0.52528157     0.24900
C263        C  0.68336038  0.83075636  0.50648527    -0.23200
C264        C  0.68484693  0.87255123  0.48222319     0.19800
C265        C  0.64618420  0.90140974  0.48002338     0.24800
C266        C  0.60514005  0.88921807  0.50255887    -0.23200
C267        C  0.60249744  0.84500918  0.52258215     0.19700
F268        F  0.56317545  0.83039251  0.54254929    -0.13100
F269        F  0.63944469  0.77679671  0.54976119    -0.15500
F270        F  0.64983208  0.94229592  0.45772642    -0.15500
F271        F  0.72498329  0.88714500  0.46381865    -0.13100
C272        C  0.79284576  0.85883347  0.65459638     0.24900
C273        C  0.81508722  0.84081448  0.61474824    -0.23200
C274        C  0.86165363  0.85119339  0.60822425     0.19800
C275        C  0.88480169  0.88121871  0.63916052     0.24800
C276        C  0.86257007  0.90035942  0.67835295    -0.23200
C277        C  0.81671106  0.88803978  0.68663035     0.19700
F278        F  0.79462464  0.90603213  0.72433978    -0.13100
F279        F  0.74798131  0.84874978  0.66201222    -0.15500
F280        F  0.92815562  0.89430943  0.62877344    -0.15500
F281        F  0.88392960  0.83536485  0.56965797    -0.13100
C282        C  0.27249867  0.13540403  0.56849078     0.24900
C283        C  0.27080416  0.18324700  0.56062213    -0.23200
C284        C  0.30758016  0.20424624  0.53775599     0.19800
C285        C  0.34590452  0.17839765  0.52455154     0.24800
C286        C  0.34801704  0.13067444  0.53308097    -0.23200
C287        C  0.31047637  0.10934461  0.55446347     0.19700
F288        F  0.31067578  0.06334480  0.56254386    -0.13100
F289        F  0.23684242  0.11345341  0.58872482    -0.15500
F290        F  0.38064835  0.20011950  0.50255066    -0.15500
F291        F  0.30691335  0.25009559  0.52884774    -0.13100
C292        C  0.15380874  0.17556295  0.69894592     0.24900
C293        C  0.13650144  0.20211158  0.66140466    -0.23200
C294        C  0.08848000  0.20502686  0.65424186     0.19800
C295        C  0.05913751  0.17673019  0.67898246     0.24800
C296        C  0.07682076  0.14600341  0.71276407    -0.23200
C297        C  0.12397639  0.14848060  0.72518710     0.19700
F298        F  0.14170749  0.12112089  0.75946752    -0.13100
F299        F  0.19974663  0.17387580  0.70854343    -0.15500
F300        F  0.01392685  0.17607783  0.66597024    -0.15500
F301        F  0.06976770  0.23137556  0.61962338    -0.13100
C302        C  0.68011906  0.15918744  0.50811085     0.24900
C303        C  0.67166221  0.20337263  0.52668232    -0.23200
C304        C  0.62600272  0.21783092  0.53196321     0.19800
C305        C  0.58948034  0.18669445  0.52343055     0.24800
C306        C  0.59832031  0.14049886  0.50982181    -0.23200
C307        C  0.64396007  0.12819927  0.49931130     0.19700
F308        F  0.65433150  0.08515336  0.48341605    -0.13100
F309        F  0.72402196  0.14494219  0.50145490    -0.15500
F310        F  0.54586159  0.20118039  0.53099106    -0.15500
F311        F  0.61699142  0.26076920  0.54903552    -0.13100
C312        C  0.84800876  0.20127146  0.63452264     0.24900
C313        C  0.80004549  0.20232920  0.63987749    -0.23200
C314        C  0.78019372  0.17495026  0.67455691     0.19800
C315        C  0.80778949  0.14589176  0.70232716     0.24800
C316        C  0.85527397  0.14208563  0.69415951    -0.23200
C317        C  0.87509452  0.17080713  0.66056706     0.19700
F318        F  0.92020359  0.16668427  0.64996282    -0.13100
F319        F  0.86838755  0.22673017  0.60100250    -0.15500
F320        F  0.78775284  0.11916532  0.73498679    -0.15500
F321        F  0.73398953  0.17540278  0.68063048    -0.13100
C322        C  0.26951221  0.88267197  0.55125767     0.24900
C323        C  0.27008232  0.83398554  0.55037950    -0.23200
C324        C  0.31170930  0.81156394  0.54089031     0.19800
C325        C  0.35206811  0.83724545  0.53358428     0.24800
C326        C  0.35143088  0.88605363  0.53456192    -0.23200
C327        C  0.30943194  0.90823047  0.54370070     0.19700
F328        F  0.30667043  0.95494352  0.54583187    -0.13100
F329        F  0.22979724  0.90598962  0.55890552    -0.15500
F330        F  0.39168773  0.81413459  0.52526962    -0.15500
F331        F  0.31369216  0.76483466  0.53998952    -0.13100
C332        C  0.12141241  0.89050857  0.70549944     0.24900
C333        C  0.07746327  0.90311579  0.68871743    -0.23200
C334        C  0.05959160  0.88190748  0.64719037     0.19800
C335        C  0.08495897  0.84882944  0.62278478     0.24800
C336        C  0.12957282  0.83744409  0.63841212    -0.23200
C337        C  0.14752288  0.85828722  0.68020711     0.19700
F338        F  0.19070801  0.84803019  0.69598103    -0.13100
F339        F  0.13937541  0.91022407  0.74559345    -0.15500
F340        F  0.06726671  0.83070162  0.58178461    -0.15500
F341        F  0.01844099  0.89530287  0.62868019    -0.13100
C342        C  0.53159364  0.88612495  0.64753572     0.24900
C343        C  0.49473797  0.91752151  0.64458780    -0.23200
C344        C  0.45787692  0.91258544  0.67554348     0.19800
C345        C  0.45968617  0.87884121  0.71083920     0.24800
C346        C  0.49726392  0.84837706  0.71397863    -0.23200
C347        C  0.53225581  0.85157299  0.68098117     0.19700
F348        F  0.56950171  0.82341871  0.68385456    -0.13100
F349        F  0.56806692  0.88937051  0.61872658    -0.15500
F350        F  0.42678119  0.87826156  0.74402279    -0.15500
F351        F  0.42186131  0.94225799  0.67369993    -0.13100
C352        C  0.64278030  0.82327899  0.85582116     0.24900
C353        C  0.60003131  0.84497373  0.84879858    -0.23200
C354        C  0.59377786  0.89029453  0.86512738     0.19800
C355        C  0.62896545  0.91305682  0.89010718     0.24800
C356        C  0.67147285  0.89125738  0.89845250    -0.23200
C357        C  0.67854474  0.84646230  0.88049590     0.19700
F358        F  0.71899577  0.82454228  0.88913202    -0.13100
F359        F  0.64969698  0.77985647  0.83896693    -0.15500
F360        F  0.62019143  0.95495895  0.90987649    -0.15500
F361        F  0.55255625  0.91165118  0.85899807    -0.13100
C362        C  0.48164586  0.08170611  0.69664756     0.24900
C363        C  0.48405459  0.10051309  0.65143981    -0.23200
C364        C  0.48961194  0.14857773  0.64768892     0.19800
C365        C  0.49752361  0.17663380  0.68801796     0.24800
C366        C  0.49977438  0.15723807  0.73304493    -0.23200
C367        C  0.48926237  0.10983472  0.73707841     0.19700
F368        F  0.49027074  0.09001316  0.78017198    -0.13100
F369        F  0.47506084  0.03570223  0.70159964    -0.15500
F370        F  0.50832447  0.22173489  0.68256995    -0.15500
F371        F  0.49112406  0.16793667  0.60454232    -0.13100
C372        C  0.70803574  0.14423509  0.87907622     0.24900
C373        C  0.69931055  0.09704621  0.88598691    -0.23200
C374        C  0.66229728  0.07599245  0.86107868     0.19800
C375        C  0.63122922  0.10223827  0.83519398     0.24800
C376        C  0.63571881  0.15052181  0.83433028    -0.23200
C377        C  0.67579121  0.17109221  0.85414419     0.19700
F378        F  0.68235744  0.21732321  0.85174976    -0.13100
F379        F  0.74427620  0.16520173  0.90167298    -0.15500
F380        F  0.59376340  0.08048400  0.81578456    -0.15500
F381        F  0.65236398  0.03074399  0.86670270    -0.13100
C382        C  0.48005951  0.15765224  0.37562512     0.24900
C383        C  0.45955202  0.11333755  0.37244778    -0.23200
C384        C  0.44195957  0.09801480  0.32825956     0.19800
C385        C  0.44735876  0.12483593  0.28795355     0.24800
C386        C  0.46967922  0.16791682  0.29085811    -0.23200
C387        C  0.48496780  0.18457233  0.33525018     0.19700
F388        F  0.50749682  0.22556880  0.33904706    -0.13100
F389        F  0.49624785  0.17477728  0.41770646    -0.15500
F390        F  0.43290924  0.10759861  0.24533564    -0.15500
F391        F  0.42172042  0.05595163  0.32345650    -0.13100
C392        C  0.65945506  0.14634298  0.14619725     0.24900
C393        C  0.64999551  0.10414636  0.12315141    -0.23200
C394        C  0.60466293  0.08694890  0.12130677     0.19800
C395        C  0.56923269  0.11156234  0.14237080     0.24800
C396        C  0.57851795  0.15409554  0.16468730    -0.23200
C397        C  0.62375535  0.17129326  0.16686575     0.19700
F398        F  0.63319900  0.21209386  0.18914728    -0.13100
F399        F  0.70287330  0.16368277  0.14761358    -0.15500
F400        F  0.52558249  0.09473902  0.13957219    -0.15500
F401        F  0.59451878  0.04729191  0.09710466    -0.13100
C402        C  0.45785811  0.87467369  0.29426600     0.24900
C403        C  0.47745126  0.83094909  0.30262843    -0.23200
C404        C  0.48641793  0.81826205  0.34946917     0.19800
C405        C  0.47866086  0.84946120  0.38685962     0.24800
C406        C  0.46122399  0.89418350  0.37836267    -0.23200
C407        C  0.44903291  0.90560142  0.33174935     0.19700
F408        F  0.43187136  0.94796784  0.32204504    -0.13100
F409        F  0.45052024  0.88881859  0.24930456    -0.15500
F410        F  0.48972633  0.83626721  0.43145643    -0.15500
F411        F  0.50688203  0.77726098  0.35874961    -0.13100
C412        C  0.59315609  0.88693690  0.18534112     0.24900
C413        C  0.60110106  0.83967519  0.19209755    -0.23200
C414        C  0.64197998  0.81980215  0.17581564     0.19800
C415        C  0.67334723  0.84637286  0.15106142     0.24800
C416        C  0.66351940  0.89273670  0.14122439    -0.23200
C417        C  0.62341273  0.91285151  0.15923623     0.19700
F418        F  0.61152490  0.95677076  0.14846556    -0.13100
F419        F  0.55419456  0.90748474  0.20076533    -0.15500
F420        F  0.71163963  0.82614151  0.13374898    -0.15500
F421        F  0.65108039  0.77456613  0.18311227    -0.13100
C422        C  0.82113064  0.36857821  0.46540261     0.24900
C423        C  0.85060287  0.39400394  0.49603245    -0.23200
C424        C  0.84629750  0.38970053  0.54485768     0.19800
C425        C  0.81396148  0.35957549  0.56303447     0.24800
C426        C  0.78705353  0.33088440  0.53268881    -0.23200
C427        C  0.78978893  0.33678709  0.48356407     0.19700
F428        F  0.76508614  0.30931456  0.45313327    -0.13100
F429        F  0.82517052  0.37200253  0.41797222    -0.15500
F430        F  0.81073301  0.35665300  0.61063257    -0.15500
F431        F  0.87504178  0.41305960  0.57508877    -0.13100
C432        C  0.86333655  0.71973904  0.49472754     0.24900
C433        C  0.81474670  0.71950950  0.49395110    -0.23200
C434        C  0.79172716  0.67937371  0.47803557     0.19800
C435        C  0.81665613  0.63912647  0.46754758     0.24800
C436        C  0.86516202  0.63811559  0.47347431    -0.23200
C437        C  0.88816297  0.67964382  0.48482061     0.19700
F438        F  0.93482931  0.68126832  0.48823284    -0.13100
F439        F  0.88712375  0.75858705  0.50701059    -0.15500
F440        F  0.79285393  0.60042686  0.45473460    -0.15500
F441        F  0.74503696  0.67784039  0.47633058    -0.13100
C442        C  0.14670110  0.37924726  0.49658573     0.24900
C443        C  0.10016562  0.37035453  0.48417185    -0.23200
C444        C  0.08282594  0.32538296  0.48908126     0.19800
C445        C  0.10941287  0.29170853  0.51088552     0.24800
C446        C  0.15401566  0.30194980  0.52784406    -0.23200
C447        C  0.17342860  0.34514907  0.51872184     0.19700
F448        F  0.21677140  0.35541322  0.53444617    -0.13100
F449        F  0.16520873  0.42170609  0.49070718    -0.15500
F450        F  0.09069268  0.24943095  0.51759949    -0.15500
F451        F  0.03919300  0.31439582  0.47472466    -0.13100
C452        C  0.10571700  0.71083969  0.50768542     0.24900
C453        C  0.15135637  0.70915067  0.52526292    -0.23200
C454        C  0.17516708  0.66704183  0.52183132     0.19800
C455        C  0.15263251  0.62689978  0.50416851     0.24800
C456        C  0.10577041  0.62811251  0.48932238    -0.23200
C457        C  0.08343812  0.67121318  0.48962889     0.19700
F458        F  0.03923455  0.67507593  0.47369541    -0.13100
F459        F  0.08204582  0.75111804  0.50889906    -0.15500
F460        F  0.17606433  0.58646236  0.50412036    -0.15500
F461        F  0.21919928  0.66396556  0.53851565    -0.13100
C462        C  0.83334966  0.50976753  0.61237209     0.24900
C463        C  0.88204002  0.50724262  0.61462825    -0.23200
C464        C  0.90299985  0.49454695  0.65767342     0.19800
C465        C  0.87631925  0.48291942  0.69652976     0.24800
C466        C  0.82762808  0.48484413  0.69429903    -0.23200
C467        C  0.80656237  0.49927230  0.65187140     0.19700
F468        F  0.75998551  0.50110653  0.64783446    -0.13100
F469        F  0.81152136  0.52238083  0.57175938    -0.15500
F470        F  0.89846991  0.46914884  0.73657971    -0.15500
F471        F  0.94953291  0.49134796  0.66167757    -0.13100
C472        C  0.82600259  0.33065472  0.79741192     0.24900
C473        C  0.81923667  0.37347670  0.82016014    -0.23200
C474        C  0.83850148  0.38162224  0.86528965     0.19800
C475        C  0.86605041  0.34826669  0.88651282     0.24800
C476        C  0.87361906  0.30571948  0.86356701    -0.23200
C477        C  0.85277798  0.29666098  0.81929433     0.19700
F478        F  0.86044571  0.25605658  0.79641812    -0.13100
F479        F  0.80778895  0.32239567  0.75356853    -0.15500
F480        F  0.88881698  0.35899881  0.92758778    -0.15500
F481        F  0.83392864  0.42337858  0.88701434    -0.13100
C482        C  0.15113258  0.51040496  0.67325504     0.24900
C483        C  0.16273318  0.46346161  0.67709519    -0.23200
C484        C  0.14185562  0.43154527  0.64542980     0.19800
C485        C  0.10945900  0.44561298  0.61167752     0.24800
C486        C  0.09717612  0.49235745  0.60764703    -0.23200
C487        C  0.11874837  0.52480696  0.63858968     0.19700
F488        F  0.10903564  0.57036183  0.63491044    -0.13100
F489        F  0.16960052  0.54193038  0.70414115    -0.15500
F490        F  0.08919090  0.41280656  0.58353689    -0.15500
F491        F  0.15237813  0.38599349  0.64758528    -0.13100
C492        C  0.14641289  0.31808821  0.77977953     0.24900
C493        C  0.17354970  0.35230376  0.80275954    -0.23200
C494        C  0.17252711  0.35667967  0.85203605     0.19800
C495        C  0.14211683  0.33016362  0.87751805     0.24800
C496        C  0.11367844  0.29679939  0.85473036    -0.23200
C497        C  0.11733872  0.28992980  0.80569668     0.19700
F498        F  0.09052049  0.25808559  0.78259645    -0.13100
F499        F  0.14680220  0.31312410  0.73207719    -0.15500
F500        F  0.13797365  0.33990382  0.92411329    -0.15500
F501        F  0.19759507  0.38986576  0.87525047    -0.13100
C502        C  0.88253106  0.47294594  0.24723344     0.24900
C503        C  0.83418462  0.47145913  0.25115617    -0.23200
C504        C  0.81517621  0.48445515  0.29461677     0.19800
C505        C  0.84408428  0.49410840  0.33423576     0.24800
C506        C  0.89239010  0.49152148  0.33094049    -0.23200
C507        C  0.91118674  0.48239293  0.28671442     0.19700
F508        F  0.95746366  0.48007479  0.28224039    -0.13100
F509        F  0.90226837  0.46296013  0.20534706    -0.15500
F510        F  0.82482785  0.50230748  0.37671969    -0.15500
F511        F  0.76887681  0.48387074  0.29990119    -0.13100
C512        C  0.82215909  0.35411196  0.07927452     0.24900
C513        C  0.82205607  0.35096356  0.12856994    -0.23200
C514        C  0.84389313  0.31356491  0.15042211     0.19800
C515        C  0.86810573  0.28124917  0.12330367     0.24800
C516        C  0.87271345  0.28752165  0.07442342    -0.23200
C517        C  0.84766765  0.32323783  0.05258878     0.19700
F518        F  0.85067951  0.33087939  0.00574014    -0.13100
F519        F  0.80063981  0.38950672  0.05705692    -0.15500
F520        F  0.89016788  0.24605914  0.14515163    -0.15500
F521        F  0.84252647  0.30896601  0.19794204    -0.13100
C522        C  0.09130147  0.43758338  0.26157682     0.24900
C523        C  0.13209568  0.46401416  0.25706973    -0.23200
C524        C  0.13951876  0.50073760  0.28969568     0.19800
C525        C  0.10841648  0.50918671  0.32665364     0.24800
C526        C  0.06905429  0.48114360  0.33198187    -0.23200
C527        C  0.06105625  0.44560269  0.29844568     0.19700
F528        F  0.02423777  0.41702433  0.30197262    -0.13100
F529        F  0.08019706  0.40282417  0.23068062    -0.15500
F530        F  0.11851699  0.54295700  0.35891836    -0.15500
F531        F  0.17765490  0.52753606  0.28703075    -0.13100
C532        C  0.15507702  0.31802350  0.14548605     0.24900
C533        C  0.16755880  0.36072981  0.12654606    -0.23200
C534        C  0.15530379  0.37039809  0.07960964     0.19800
C535        C  0.12747282  0.33980640  0.05345159     0.24800
C536        C  0.11321879  0.29797160  0.07289411    -0.23200
C537        C  0.12841077  0.28653580  0.11854295     0.19700
F538        F  0.11474265  0.24643355  0.13794322    -0.13100
F539        F  0.16696396  0.30781831  0.19069900    -0.15500
F540        F  0.11057369  0.35313007  0.01082187    -0.15500
F541        F  0.16595834  0.41173064  0.06077847    -0.13100
C542        C  0.46834184  0.37142939  0.16624014     0.24900
C543        C  0.46445555  0.37237577  0.11644531    -0.23200
C544        C  0.46404154  0.33010624  0.09139514     0.19800
C545        C  0.47008384  0.28836214  0.11517756     0.24800
C546        C  0.47622663  0.28760836  0.16468792    -0.23200
C547        C  0.47390649  0.32949335  0.19006932     0.19700
F548        F  0.48024967  0.33019726  0.23766401    -0.13100
F549        F  0.46792845  0.41131044  0.19192521    -0.15500
F550        F  0.47138035  0.24849310  0.08948306    -0.15500
F551        F  0.46095876  0.32924069  0.04351849    -0.13100
C552        C  0.47549227  0.69790915  0.15001321     0.24900
C553        C  0.50729460  0.69951026  0.18812752    -0.23200
C554        C  0.53598310  0.66101058  0.19533231     0.19800
C555        C  0.53348418  0.62214176  0.16469263     0.24800
C556        C  0.50340329  0.62162217  0.12492672    -0.23200
C557        C  0.47373046  0.65970937  0.11872433     0.19700
F558        F  0.44381122  0.66068025  0.08124763    -0.13100
F559        F  0.44836812  0.73493205  0.14096896    -0.15500
F560        F  0.56298939  0.58661817  0.17193804    -0.15500
F561        F  0.56838889  0.66221717  0.23059236    -0.13100
C562        C  0.46921325  0.72480863  0.88054041     0.24900
C563        C  0.48282749  0.72364628  0.83331819    -0.23200
C564        C  0.48432013  0.68083665  0.80939578     0.19800
C565        C  0.47714470  0.63957013  0.83386986     0.24800
C566        C  0.46847530  0.64066748  0.88267779    -0.23200
C567        C  0.46150015  0.68394321  0.90475276     0.19700
F568        F  0.45133693  0.68678638  0.95124376    -0.13100
F569        F  0.46699629  0.76566190  0.90445325    -0.15500
F570        F  0.48394036  0.59872727  0.81110125    -0.15500
F571        F  0.49771616  0.67865762  0.76386726    -0.13100
C572        C  0.70287319  0.50374148  0.86417217     0.24900
C573        C  0.70141348  0.49321070  0.81528969    -0.23200
C574        C  0.65862742  0.49534814  0.79138374     0.19800
C575        C  0.61821709  0.50608770  0.81591966     0.24800
C576        C  0.61938290  0.51548828  0.86522970    -0.23200
C577        C  0.66266141  0.51548075  0.88860955     0.19700
F578        F  0.66579252  0.52349488  0.93587677    -0.13100
F579        F  0.74326149  0.50050432  0.88892398    -0.15500
F580        F  0.57748869  0.50546946  0.79145296    -0.15500
F581        F  0.65526968  0.48325410  0.74496712    -0.13100
C582        C  0.56773740  0.31237267  0.87552280     0.24900
C583        C  0.53288216  0.28432832  0.85408199    -0.23200
C584        C  0.48682574  0.29671767  0.86179242     0.19800
C585        C  0.47593706  0.33520678  0.89035396     0.24800
C586        C  0.51075623  0.36331109  0.91186376    -0.23200
C587        C  0.55686182  0.35134541  0.90351695     0.19700
F588        F  0.59173719  0.37724065  0.92259930    -0.13100
F589        F  0.61281466  0.30255513  0.86893328    -0.15500
F590        F  0.43078734  0.34530186  0.89603794    -0.15500
F591        F  0.45191840  0.27088687  0.84268245    -0.13100
C592        C  0.33958960  0.43714806  0.78619311     0.24900
C593        C  0.29887465  0.46307095  0.78963355    -0.23200
C594        C  0.29751038  0.49960754  0.82261078     0.19800
C595        C  0.33463252  0.50758874  0.85429057     0.24800
C596        C  0.37404826  0.47932483  0.85336408    -0.23200
C597        C  0.37707760  0.44551148  0.81738867     0.19700
F598        F  0.41457792  0.41780032  0.81501483    -0.13100
F599        F  0.34176199  0.40148652  0.75473196    -0.15500
F600        F  0.33116364  0.54171871  0.88733609    -0.15500
F601        F  0.25857718  0.52494724  0.82694720    -0.13100
C602        C  0.30256924  0.52321151  0.07964405     0.24900
C603        C  0.34702419  0.51743638  0.09962522    -0.23200
C604        C  0.35053633  0.50539216  0.14776511     0.19800
C605        C  0.31093767  0.49389991  0.17308115     0.24800
C606        C  0.26705929  0.49474166  0.15109437    -0.23200
C607        C  0.26326202  0.51150843  0.10484621     0.19700
F608        F  0.22153249  0.51223812  0.08231591    -0.13100
F609        F  0.29720583  0.53631526  0.03408118    -0.15500
F610        F  0.31603254  0.47693797  0.21724344    -0.15500
F611        F  0.39248428  0.49941070  0.16883533    -0.13100
C612        C  0.65045629  0.51415248  0.09875644     0.24900
C613        C  0.62067548  0.47969958  0.07912895    -0.23200
C614        C  0.62729316  0.43393755  0.09325589     0.19800
C615        C  0.66378744  0.42258692  0.12393304     0.24800
C616        C  0.69502979  0.45649281  0.14136610    -0.23200
C617        C  0.68718613  0.50260675  0.12947326     0.19700
F618        F  0.71652597  0.53620896  0.14526407    -0.13100
F619        F  0.64439462  0.55924789  0.08815906    -0.15500
F620        F  0.66956575  0.37766589  0.13544994    -0.15500
F621        F  0.59906641  0.39970156  0.07668704    -0.13100
loop_ 
_geom_bond_atom_site_label_1 
_geom_bond_atom_site_label_2 
_geom_bond_distance 
_geom_bond_site_symmetry_2 
_ccdc_geom_bond_type 
O1            C9   1.273       .  A
O1          Co21   2.041       .  S
O2           C10   1.266       .  A
O2          Co22   2.019       .  S
O3           C11   1.246       .  A
O3          Co23   1.948       .  S
O4           C12   1.252       .  A
O4          Co24   1.969   1_554  S
O5           C11   1.261       .  A
O5          Co22   2.026       .  S
O6           C12   1.260       .  A
O6          Co21   2.020       .  S
O7           C10   1.261       .  A
O7          Co24   1.989       .  S
O8            C9   1.263       .  A
O8          Co23   1.992   1_554  S
C9          C556   1.505       .  S
C10         C596   1.491       .  S
C11         C566   1.494       .  S
C12         C603   1.503       .  S
O13          C26   1.269       .  A
O13         Co21   1.881       .  S
O14          C27   1.265       .  A
O14         Co22   1.872       .  S
O15          C28   1.261       .  A
O15         Co23   2.001   1_554  S
O16          C29   1.268       .  A
O16         Co24   2.022       .  S
O17          C29   1.265       .  A
O17         Co22   1.991       .  S
O18          C28   1.260       .  A
O18         Co21   1.972       .  S
O19          C26   1.309       .  A
O19         Co24   2.131   1_554  S
O20          C27   1.315       .  A
O20         Co23   2.159       .  S
Co21         O25   2.010   1_554  S
Co22         O25   2.011       .  S
Co23         O25   2.151       .  S
Co24         O25   2.140       .  S
C26         C543   1.497       .  S
C27         C576   1.510       .  S
C28         C613   1.495       .  S
C29         C586   1.512       .  S
C30         C606   1.491       .  S
C30          N31   1.377       .  A
C30          N35   1.359       .  A
N31          C32   1.377       .  A
C32         C523   1.515       .  S
C32          N33   1.357       .  A
N33          C34   1.349       .  A
C34         C533   1.472       .  S
C34          N35   1.352       .  A
C36         C503   1.497       .  S
C36          N37   1.362       .  A
C36          N41   1.375       .  A
N37          C38   1.353       .  A
C38         C513   1.469       .  S
C38          N39   1.345       .  A
N39          C40   1.351       .  A
C40         C616   1.488       .  S
C40          N41   1.374       .  A
C42         C593   1.481       .  S
C42          N43   1.358       .  A
C42          N47   1.371       .  A
N43          C44   1.354       .  A
C44         C493   1.474       .  S
C44          N45   1.349       .  A
N45          C46   1.356       .  A
C46         C483   1.487       .  S
C46          N47   1.370       .  A
C48         C466   1.506       .  S
C48          N49   1.357       .  A
C48          N53   1.379       .  A
N49          C50   1.352       .  A
C50         C473   1.467       .  S
C50          N51   1.353       .  A
N51          C52   1.358       .  A
C52         C573   1.501       .  S
C52          N53   1.379       .  A
N54          C59   1.355   1_655  A
N54          C58   1.351       .  A
N54          H86   1.043       .  S
N55          C62   1.347       .  A
N55          C63   1.349   1_556  A
N56          C61   1.353   1_655  A
N56          C60   1.356       .  A
N56          H87   1.043       .  S
N57          C64   1.350       .  A
N57          C65   1.348   1_556  A
C58          C66   1.388       .  A
C58          C74   1.413       .  A
C59          C75   1.414       .  A
C59          C67   1.387       .  A
C60          C68   1.389       .  A
C60          C77   1.419       .  A
C61          C76   1.414       .  A
C61          C69   1.386       .  A
C62          C74   1.405       .  A
C62          C70   1.386       .  A
C63          C77   1.410       .  A
C63          C71   1.387   1_554  A
C64          C72   1.386       .  A
C64          C75   1.410       .  A
C65          C73   1.385   1_554  A
C65          C76   1.405       .  A
C66          C67   1.373   1_655  A
C66          H78   1.082       .  S
C67          H79   1.082       .  S
C68          C69   1.372   1_655  A
C68          H80   1.081       .  S
C69          H81   1.082       .  S
C70          C71   1.377       .  A
C70          H82   1.083       .  S
C71          H83   1.083   1_556  S
C72          C73   1.374       .  A
C72          H84   1.082       .  S
C73          H85   1.082   1_556  S
C74         C476   1.480       .  S
C75         C496   1.497       .  S
C76         C536   1.485       .  S
C77         C516   1.498       .  S
O88          C96   1.269       .  A
O88        Co108   1.987       .  S
O89          C97   1.270       .  A
O89        Co109   1.869       .  S
O90          C98   1.266       .  A
O90        Co110   2.014       .  S
O91          C99   1.301       .  A
O91        Co111   2.069   1_455  S
O92          C98   1.263       .  A
O92        Co109   1.986       .  S
O93          C99   1.279       .  A
O93        Co108   1.929       .  S
O94          C97   1.309       .  A
O94        Co111   2.120       .  S
O95          C96   1.274       .  A
O95        Co110   2.023   1_455  S
C96         C526   1.505       .  S
C97         C436   1.494       .  S
C98         C506   1.486       .  S
C99         C456   1.505       .  S
O100        C113   1.237       .  A
O100       Co108   1.961       .  S
O101        C114   1.274       .  A
O101       Co109   2.024       .  S
O102        C115   1.270       .  A
O102       Co110   1.972   1_455  S
O103        C116   1.255       .  A
O103       Co111   1.996       .  S
O104        C116   1.255       .  A
O104       Co109   2.008       .  S
O105        C115   1.275       .  A
O105       Co108   2.023       .  S
O106        C113   1.251       .  A
O106       Co111   2.027   1_455  S
O107        C114   1.269       .  A
O107       Co110   1.980       .  S
Co108       O112   1.969   1_455  S
Co109       O112   1.979       .  S
Co110       O112   2.084       .  S
Co111       O112   2.228       .  S
C113        C486   1.494       .  S
C114        C423   1.473       .  S
C115        C443   1.482       .  S
C116        C463   1.507       .  S
C117        C553   1.494       .  S
C117        N118   1.376       .  A
C117        N122   1.360       .  A
N118        C119   1.374       .  A
C119        C403   1.486       .  S
C119        N120   1.350       .  A
N120        C121   1.349       .  A
C121        C413   1.473       .  S
C121        N122   1.356       .  A
C123        C546   1.493       .  S
C123        N124   1.359       .  A
C123        N128   1.373       .  A
N124        C125   1.353       .  A
C125        C396   1.464       .  S
C125        N126   1.350       .  A
N126        C127   1.354       .  A
C127        C386   1.481       .  S
C127        N128   1.372       .  A
C129        C366   1.491       .  S
C129        N130   1.373       .  A
C129        N134   1.350       .  A
N130        C131   1.379       .  A
C131        C583   1.511       .  S
C131        N132   1.364       .  A
N132        C133   1.358       .  A
C133        C376   1.480       .  S
C133        N134   1.350       .  A
C135        C346   1.473       .  S
C135        N136   1.351       .  A
C135        N140   1.369       .  A
N136        C137   1.345       .  A
C137        C353   1.465       .  S
C137        N138   1.355       .  A
N138        C139   1.363       .  A
C139        C563   1.485       .  S
C139        N140   1.371       .  A
N141        C146   1.354       .  A
N141        C145   1.354   1_554  A
N141        H173   1.042       .  S
N142        C149   1.351   1_565  A
N142        C150   1.349       .  A
N143        C148   1.353       .  A
N143        C147   1.351   1_554  A
N143        H174   1.042       .  S
N144        C151   1.348   1_565  A
N144        C152   1.349       .  A
C145        C153   1.392       .  A
C145        C161   1.419       .  A
C146        C162   1.409       .  A
C146        C154   1.384       .  A
C147        C155   1.389       .  A
C147        C164   1.412       .  A
C148        C163   1.412       .  A
C148        C156   1.388       .  A
C149        C161   1.413       .  A
C149        C157   1.387       .  A
C150        C164   1.406       .  A
C150        C158   1.384       .  A
C151        C159   1.383       .  A
C151        C162   1.402       .  A
C152        C160   1.387       .  A
C152        C163   1.409       .  A
C153        C154   1.367   1_556  A
C153        H165   1.080       .  S
C154        H166   1.082       .  S
C155        C156   1.367   1_556  A
C155        H167   1.082       .  S
C156        H168   1.082       .  S
C157        C158   1.377   1_545  A
C157        H169   1.083       .  S
C158        H170   1.082       .  S
C159        C160   1.373   1_545  A
C159        H171   1.082       .  S
C160        H172   1.082       .  S
C161        C373   1.493       .  S
C162        C393   1.481       .  S
C163        C416   1.488       .  S
C164        C356   1.482       .  S
C175        C453   1.497       .  S
C175        N176   1.373       .  A
C175        N180   1.364       .  A
N176        C177   1.372       .  A
C177        C323   1.492       .  S
C177        N178   1.354       .  A
N178        C179   1.348       .  A
C179        C336   1.477       .  S
C179        N180   1.358       .  A
C181        C303   1.476       .  S
C181        N182   1.359       .  A
C181        N186   1.366       .  A
N182        C183   1.353       .  A
C183        C313   1.478       .  S
C183        N184   1.352       .  A
N184        C185   1.357       .  A
C185        C426   1.485       .  S
C185        N186   1.367       .  A
C187        C446   1.469       .  S
C187        N188   1.358       .  A
C187        N192   1.354       .  A
N188        C189   1.364       .  A
C189        C283   1.483       .  S
C189        N190   1.362       .  A
N190        C191   1.359       .  A
C191        C293   1.483       .  S
C191        N192   1.353       .  A
C193        C263   1.478       .  S
C193        N194   1.370       .  A
C193        N198   1.357       .  A
N194        C195   1.370       .  A
C195        C433   1.491       .  S
C195        N196   1.356       .  A
N196        C197   1.352       .  A
C197        C273   1.472       .  S
C197        N198   1.352       .  A
N199        C204   1.351       .  A
N199        C203   1.351   1_655  A
N199        H231   1.029       .  S
N200        C207   1.352       .  A
N200        C208   1.355   1_545  A
N201        C206   1.349       .  A
N201        C205   1.349   1_655  A
N201        H232   1.028       .  S
N202        C209   1.353       .  A
N202        C210   1.352   1_545  A
C203        C211   1.388   1_455  A
C203        C219   1.415       .  A
C204        C220   1.413       .  A
C204        C212   1.386       .  A
C205        C213   1.385   1_455  A
C205        C222   1.407       .  A
C206        C221   1.409       .  A
C206        C214   1.387       .  A
C207        C219   1.420       .  A
C207        C215   1.390       .  A
C208        C222   1.413       .  A
C208        C216   1.383   1_565  A
C209        C217   1.387       .  A
C209        C220   1.414       .  A
C210        C218   1.386       .  A
C210        C221   1.413       .  A
C211        C212   1.382       .  A
C211        H223   1.083   1_655  S
C212        H224   1.082       .  S
C213        C214   1.379       .  A
C213        H225   1.082   1_655  S
C214        H226   1.082       .  S
C215        C216   1.373       .  A
C215        H227   1.081       .  S
C216        H228   1.082   1_545  S
C217        C218   1.370   1_545  A
C217        H229   1.081       .  S
C218        H230   1.082       .  S
C219        C296   1.496       .  S
C220        C316   1.494       .  S
C221        C276   1.486       .  S
C222        C333   1.492       .  S
O233        C241   1.242       .  A
O233       Co253   1.954       .  S
O234        C242   1.271       .  A
O234       Co254   2.021       .  S
O235        C243   1.260       .  A
O235       Co255   2.019       .  S
O236        C244   1.270       .  A
O236       Co256   1.990   1_565  S
O237        C243   1.245       .  A
O237       Co254   1.959       .  S
O238        C244   1.277       .  A
O238       Co253   2.029       .  S
O239        C242   1.265       .  A
O239       Co256   1.982       .  S
O240        C241   1.259       .  A
O240       Co255   2.028   1_565  S
C241        C406   1.497       .  S
C242        C306   1.495       .  S
C243        C383   1.496       .  S
C244        C266   1.499       .  S
O245        C258   1.258       .  A
O245       Co253   1.982       .  S
O246        C259   1.268       .  A
O246       Co254   1.877       .  S
O247        C260   1.305       .  A
O247       Co255   2.101   1_565  S
O248        C261   1.271       .  A
O248       Co256   2.033       .  S
O249        C261   1.261       .  A
O249       Co254   1.993       .  S
O250        C260   1.272       .  A
O250       Co253   1.892       .  S
O251        C258   1.266       .  A
O251       Co256   2.005   1_565  S
O252        C259   1.304       .  A
O252       Co255   2.104       .  S
Co253       O257   1.950   1_565  S
Co254       O257   1.953       .  S
Co255       O257   2.243       .  S
Co256       O257   2.092       .  S
C258        C343   1.485       .  S
C259        C286   1.485       .  S
C260        C326   1.498       .  S
C261        C363   1.491       .  S
C262        C263   1.403       .  A
C262        C267   1.405       .  A
C262        F269   1.357       .  S
C263        C264   1.405       .  A
C264        C265   1.403       .  A
C264        F271   1.358       .  S
C265        C266   1.413       .  A
C265        F270   1.358       .  S
C266        C267   1.413       .  A
C267        F268   1.357       .  S
C272        C273   1.408       .  A
C272        C277   1.403       .  A
C272        F279   1.357       .  S
C273        C274   1.403       .  A
C274        C275   1.388       .  A
C274        F281   1.358       .  S
C275        C276   1.405       .  A
C275        F280   1.355       .  S
C276        C277   1.405       .  A
C277        F278   1.357       .  S
C282        C283   1.410       .  A
C282        C287   1.401       .  A
C282        F289   1.358       .  S
C283        C284   1.405       .  A
C284        C285   1.399       .  A
C284        F291   1.358       .  S
C285        C286   1.411       .  A
C285        F290   1.358       .  S
C286        C287   1.407       .  A
C287        F288   1.358       .  S
C292        C293   1.408       .  A
C292        C297   1.403       .  A
C292        F299   1.357       .  S
C293        C294   1.409       .  A
C294        C295   1.391       .  A
C294        F301   1.358       .  S
C295        C296   1.408       .  A
C295        F300   1.356       .  S
C296        C297   1.408       .  A
C297        F298   1.358       .  S
C302        C303   1.402       .  A
C302        C307   1.397       .  A
C302        F309   1.358       .  S
C303        C304   1.403       .  A
C304        C305   1.406       .  A
C304        F311   1.358       .  S
C305        C306   1.414       .  A
C305        F310   1.357       .  S
C306        C307   1.411       .  A
C307        F308   1.358       .  S
C312        C313   1.406       .  A
C312        C317   1.394       .  A
C312        F319   1.359       .  S
C313        C314   1.407       .  A
C314        C315   1.403       .  A
C314        F321   1.358       .  S
C315        C316   1.409       .  A
C315        F320   1.358       .  S
C316        C317   1.408       .  A
C317        F318   1.357       .  S
C322        C323   1.412       .  A
C322        C327   1.398       .  A
C322        F329   1.359       .  S
C323        C324   1.404       .  A
C324        C325   1.409       .  A
C324        F331   1.357       .  S
C325        C326   1.416       .  A
C325        F330   1.357       .  S
C326        C327   1.408       .  A
C327        F328   1.358       .  S
C332        C333   1.404       .  A
C332        C337   1.404       .  A
C332        F339   1.357       .  S
C333        C334   1.408       .  A
C334        C335   1.396       .  A
C334        F341   1.355       .  S
C335        C336   1.402       .  A
C335        F340   1.358       .  S
C336        C337   1.410       .  A
C337        F338   1.358       .  S
C342        C343   1.409       .  A
C342        C347   1.391       .  A
C342        F349   1.357       .  S
C343        C344   1.409       .  A
C344        C345   1.411       .  A
C344        F351   1.357       .  S
C345        C346   1.408       .  A
C345        F350   1.357       .  S
C346        C347   1.401       .  A
C347        F348   1.359       .  S
C352        C353   1.405       .  A
C352        C357   1.404       .  A
C352        F359   1.357       .  S
C353        C354   1.401       .  A
C354        C355   1.390       .  A
C354        F361   1.359       .  S
C355        C356   1.406       .  A
C355        F360   1.358       .  S
C356        C357   1.405       .  A
C357        F358   1.357       .  S
C362        C363   1.404       .  A
C362        C367   1.409       .  A
C362        F369   1.358       .  S
C363        C364   1.409       .  A
C364        C365   1.407       .  A
C364        F371   1.356       .  S
C365        C366   1.403       .  A
C365        F370   1.357       .  S
C366        C367   1.415       .  A
C367        F368   1.358       .  S
C372        C373   1.409       .  A
C372        C377   1.405       .  A
C372        F379   1.358       .  S
C373        C374   1.406       .  A
C374        C375   1.387       .  A
C374        F381   1.356       .  S
C375        C376   1.407       .  A
C375        F380   1.358       .  S
C376        C377   1.409       .  A
C377        F378   1.357       .  S
C382        C383   1.417       .  A
C382        C387   1.406       .  A
C382        F389   1.359       .  S
C383        C384   1.407       .  A
C384        C385   1.404       .  A
C384        F391   1.357       .  S
C385        C386   1.407       .  A
C385        F390   1.357       .  S
C386        C387   1.403       .  A
C387        F388   1.358       .  S
C392        C393   1.402       .  A
C392        C397   1.400       .  A
C392        F399   1.357       .  S
C393        C394   1.407       .  A
C394        C395   1.394       .  A
C394        F401   1.359       .  S
C395        C396   1.401       .  A
C395        F400   1.358       .  S
C396        C397   1.405       .  A
C397        F398   1.357       .  S
C402        C403   1.413       .  A
C402        C407   1.408       .  A
C402        F409   1.358       .  S
C403        C404   1.402       .  A
C404        C405   1.405       .  A
C404        F411   1.358       .  S
C405        C406   1.416       .  A
C405        F410   1.358       .  S
C406        C407   1.405       .  A
C407        F408   1.357       .  S
C412        C413   1.406       .  A
C412        C417   1.390       .  A
C412        F419   1.359       .  S
C413        C414   1.406       .  A
C414        C415   1.400       .  A
C414        F421   1.357       .  S
C415        C416   1.407       .  A
C415        F420   1.357       .  S
C416        C417   1.407       .  A
C417        F418   1.359       .  S
C422        C423   1.405       .  A
C422        C427   1.407       .  A
C422        F429   1.358       .  S
C423        C424   1.400       .  A
C424        C425   1.395       .  A
C424        F431   1.356       .  S
C425        C426   1.410       .  A
C425        F430   1.359       .  S
C426        C427   1.410       .  A
C427        F428   1.357       .  S
C432        C433   1.412       .  A
C432        C437   1.398       .  A
C432        F439   1.357       .  S
C433        C434   1.405       .  A
C434        C435   1.407       .  A
C434        F441   1.357       .  S
C435        C436   1.416       .  A
C435        F440   1.358       .  S
C436        C437   1.406       .  A
C437        F438   1.358       .  S
C442        C443   1.412       .  A
C442        C447   1.406       .  A
C442        F449   1.357       .  S
C443        C444   1.408       .  A
C444        C445   1.391       .  A
C444        F451   1.358       .  S
C445        C446   1.402       .  A
C445        F450   1.359       .  S
C446        C447   1.404       .  A
C447        F448   1.357       .  S
C452        C453   1.407       .  A
C452        C457   1.402       .  A
C452        F459   1.358       .  S
C453        C454   1.408       .  A
C454        C455   1.414       .  A
C454        F461   1.358       .  S
C455        C456   1.417       .  A
C455        F460   1.358       .  S
C456        C457   1.410       .  A
C457        F458   1.357       .  S
C462        C463   1.417       .  A
C462        C467   1.415       .  A
C462        F469   1.357       .  S
C463        C464   1.406       .  A
C464        C465   1.407       .  A
C464        F471   1.358       .  S
C465        C466   1.416       .  A
C465        F470   1.358       .  S
C466        C467   1.407       .  A
C467        F468   1.357       .  S
C472        C473   1.407       .  A
C472        C477   1.401       .  A
C472        F479   1.357       .  S
C473        C474   1.401       .  A
C474        C475   1.392       .  A
C474        F481   1.358       .  S
C475        C476   1.406       .  A
C475        F480   1.357       .  S
C476        C477   1.402       .  A
C477        F478   1.357       .  S
C482        C483   1.409       .  A
C482        C487   1.414       .  A
C482        F489   1.357       .  S
C483        C484   1.406       .  A
C484        C485   1.393       .  A
C484        F491   1.359       .  S
C485        C486   1.409       .  A
C485        F490   1.357       .  S
C486        C487   1.412       .  A
C487        F488   1.357       .  S
C492        C493   1.409       .  A
C492        C497   1.402       .  A
C492        F499   1.358       .  S
C493        C494   1.402       .  A
C494        C495   1.392       .  A
C494        F501   1.359       .  S
C495        C496   1.410       .  A
C495        F500   1.355       .  S
C496        C497   1.408       .  A
C497        F498   1.358       .  S
C502        C503   1.413       .  A
C502        C507   1.403       .  A
C502        F509   1.358       .  S
C503        C504   1.408       .  A
C504        C505   1.411       .  A
C504        F511   1.357       .  S
C505        C506   1.411       .  A
C505        F510   1.357       .  S
C506        C507   1.401       .  A
C507        F508   1.355       .  S
C512        C513   1.402       .  A
C512        C517   1.390       .  A
C512        F519   1.359       .  S
C513        C514   1.404       .  A
C514        C515   1.404       .  A
C514        F521   1.357       .  S
C515        C516   1.410       .  A
C515        F520   1.357       .  S
C516        C517   1.410       .  A
C517        F518   1.355       .  S
C522        C523   1.420       .  A
C522        C527   1.398       .  A
C522        F529   1.359       .  S
C523        C524   1.413       .  A
C524        C525   1.418       .  A
C524        F531   1.357       .  S
C525        C526   1.415       .  A
C525        F530   1.357       .  S
C526        C527   1.407       .  A
C527        F528   1.359       .  S
C532        C533   1.408       .  A
C532        C537   1.402       .  A
C532        F539   1.357       .  S
C533        C534   1.402       .  A
C534        C535   1.393       .  A
C534        F541   1.358       .  S
C535        C536   1.406       .  A
C535        F540   1.356       .  S
C536        C537   1.403       .  A
C537        F538   1.357       .  S
C542        C543   1.414       .  A
C542        C547   1.409       .  A
C542        F549   1.358       .  S
C543        C544   1.407       .  A
C544        C545   1.405       .  A
C544        F551   1.358       .  S
C545        C546   1.411       .  A
C545        F550   1.358       .  S
C546        C547   1.405       .  A
C547        F548   1.357       .  S
C552        C553   1.406       .  A
C552        C557   1.409       .  A
C552        F559   1.358       .  S
C553        C554   1.410       .  A
C554        C555   1.413       .  A
C554        F561   1.357       .  S
C555        C556   1.410       .  A
C555        F560   1.357       .  S
C556        C557   1.414       .  A
C557        F558   1.358       .  S
C562        C563   1.405       .  A
C562        C567   1.400       .  A
C562        F569   1.358       .  S
C563        C564   1.407       .  A
C564        C565   1.411       .  A
C564        F571   1.357       .  S
C565        C566   1.412       .  A
C565        F570   1.357       .  S
C566        C567   1.411       .  A
C567        F568   1.359       .  S
C572        C573   1.414       .  A
C572        C577   1.412       .  A
C572        F579   1.358       .  S
C573        C574   1.404       .  A
C574        C575   1.411       .  A
C574        F581   1.358       .  S
C575        C576   1.420       .  A
C575        F580   1.358       .  S
C576        C577   1.408       .  A
C577        F578   1.357       .  S
C582        C583   1.418       .  A
C582        C587   1.412       .  A
C582        F589   1.358       .  S
C583        C584   1.408       .  A
C584        C585   1.410       .  A
C584        F591   1.357       .  S
C585        C586   1.419       .  A
C585        F590   1.358       .  S
C586        C587   1.409       .  A
C587        F588   1.358       .  S
C592        C593   1.408       .  A
C592        C597   1.406       .  A
C592        F599   1.358       .  S
C593        C594   1.403       .  A
C594        C595   1.404       .  A
C594        F601   1.358       .  S
C595        C596   1.411       .  A
C595        F600   1.358       .  S
C596        C597   1.408       .  A
C597        F598   1.358       .  S
C602        C603   1.410       .  A
C602        C607   1.405       .  A
C602        F609   1.358       .  S
C603        C604   1.416       .  A
C604        C605   1.412       .  A
C604        F611   1.358       .  S
C605        C606   1.407       .  A
C605        F610   1.357       .  S
C606        C607   1.408       .  A
C607        F608   1.358       .  S
C612        C613   1.419       .  A
C612        C617   1.406       .  A
C612        F619   1.358       .  S
C613        C614   1.405       .  A
C614        C615   1.399       .  A
C614        F621   1.358       .  S
C615        C616   1.413       .  A
C615        F620   1.358       .  S
C616        C617   1.403       .  A
C617        F618   1.358       .  S
