geometry optimzed in LAMMPS
_audit_creation_date              2020-11-30 
_audit_creation_method            'lammps2cif' 
_symmetry_space_group_name_H-M    'P1' 
_symmetry_Int_Tables_number       1 
_symmetry_cell_setting            triclinic 
loop_ 
_symmetry_equiv_pos_as_xyz 
  x,y,z 
_cell_length_a                    46.55471128648916 
_cell_length_b                    45.543081268007796 
_cell_length_c                    51.50585519726598 
_cell_angle_alpha                 91.55423399796855 
_cell_angle_beta                  103.45216379060672 
_cell_angle_gamma                 93.06210329103945 
loop_ 
_atom_site_label 
_atom_site_type_symbol 
_atom_site_fract_x 
_atom_site_fract_y 
_atom_site_fract_z 
_atom_site_charge 
O1          O  0.14269800  0.40780563  0.16827605    -0.74130
O2          O  0.18341976  0.40151896  0.15173567    -0.53040
C3          C  0.16390535  0.41735435  0.15793266     0.79600
O4          O  0.16954143  0.30962815  0.26667485    -0.58730
O5          O  0.12614967  0.28326686  0.24750642    -0.51760
C6          C  0.14601603  0.29387431  0.26795967     0.71610
O7          O  0.23314581  0.36583423  0.23021243    -0.73290
O8          O  0.23471498  0.37539920  0.18715250    -0.53850
C9          C  0.24561832  0.37709509  0.21253206     0.77610
O10         O  0.07908430  0.34809981  0.20133009    -0.58430
O11         O  0.07509833  0.29877336  0.20757853    -0.51550
C12         C  0.06642481  0.32489538  0.20862032     0.74210
Zr13       Zr  0.11988683  0.36330136  0.18149788     2.54710
O14         O  0.11574743  0.40224596  0.21349960    -0.79000
O15         O  0.07783157  0.38195647  0.15023562    -0.92420
Zr16       Zr  0.18945390  0.33348215  0.23157865     2.64680
O17         O  0.18754870  0.37461454  0.26219662    -0.97370
O18         O  0.23079385  0.31258762  0.26193095    -0.79430
O19         O  0.17210900  0.36581548  0.19681755    -0.82790
O20         O  0.13707942  0.33159106  0.21645827    -2.17500
O21         O  0.08752236  0.26073076  0.12589311    -0.66180
O22         O  0.08494271  0.24818615  0.16786604    -0.50750
C23         C  0.07790395  0.24422361  0.14209257     0.72590
O24         O  0.21291577  0.27879317  0.13901173    -0.59090
O25         O  0.23018458  0.32633032  0.14531458    -0.51070
C26         C  0.22558701  0.30192670  0.13158215     0.74390
O27         O  0.17866170  0.23167150  0.20625737    -0.70480
O28         O  0.13404899  0.23617440  0.21676893    -0.49160
C29         C  0.15790982  0.22316288  0.21772196     0.75780
O30         O  0.15800901  0.30579802  0.09946299    -0.65810
O31         O  0.18283909  0.34979946  0.11134895    -0.53010
C32         C  0.17811272  0.32554609  0.09743587     0.74160
Zr33       Zr  0.12199032  0.30217559  0.12749669     2.77540
O34         O  0.10109713  0.27862176  0.08356335    -0.96560
O35         O  0.08613556  0.33588608  0.10521191    -0.77380
Zr36       Zr  0.19258858  0.27072332  0.17848671     2.70070
O37         O  0.20034878  0.22174513  0.16341238    -0.78630
O38         O  0.24457590  0.27294261  0.20152794    -0.97710
Zr39       Zr  0.19078972  0.35043360  0.15958975     2.21500
Zr40       Zr  0.12050777  0.28280399  0.19887310     2.11130
O41         O  0.14025319  0.26821672  0.16186260    -2.46400
O42         O  0.17317173  0.30203853  0.14411333    -0.78420
O43         O  0.10178449  0.31529520  0.16411567    -0.70620
O44         O  0.20936192  0.31900375  0.19513498    -2.31580
O45         O  0.13826845  0.35078117  0.14365206    -2.27780
O46         O  0.17304010  0.28500427  0.21485420    -0.72380
H47         H  0.12866147  0.33673330  0.23130195     0.79620
H48         H  0.23064576  0.32114288  0.19980052     0.80710
H49         H  0.13489056  0.24794547  0.15600574     0.82930
H50         H  0.13319356  0.36472414  0.12975722     0.80540
H51         H  0.24584823  0.31040400  0.25135310     0.43570
H52         H  0.24488212  0.26379691  0.21877070     0.42540
H53         H  0.18043402  0.21156917  0.16012372     0.42220
H54         H  0.11509019  0.26365753  0.08129331     0.40160
H55         H  0.06719674  0.32863997  0.10908114     0.43290
H56         H  0.08644520  0.39195119  0.13671842     0.38070
H57         H  0.13597858  0.40555915  0.22496462     0.44190
H58         H  0.16732740  0.37275242  0.26527683     0.40600
H59         H  0.10326720  0.29372922  0.07056801     0.45520
H60         H  0.07145462  0.39815640  0.16038491     0.44250
H61         H  0.20058360  0.36950493  0.27935486     0.44380
H62         H  0.25383715  0.25939474  0.19103324     0.44740
O63         O  0.07443656  0.33540947  0.45768906    -0.74130
O64         O  0.10062577  0.37961797  0.46692168    -0.53040
C65         C  0.07830505  0.36180528  0.46748912     0.79600
O66         O  0.17567242  0.24855238  0.48347053    -0.58730
O67         O  0.17304558  0.23200634  0.44052764    -0.51760
C68         C  0.17518963  0.22794051  0.46591323     0.71610
O69         O  0.18826400  0.34263156  0.01868974    -0.73290
O70         O  0.16059868  0.38038307  0.50254228    -0.53850
C71         C  0.18389489  0.37046262  0.01718320     0.77610
O72         O  0.08710337  0.25677604  0.41305184    -0.58430
O73         O  0.11930299  0.25674334  0.38662439    -0.51550
C74         C  0.09820877  0.24488868  0.39536738     0.74210
Zr75       Zr  0.09736370  0.30641602  0.42960519     2.54710
O76         O  0.06106237  0.27787272  0.44732681    -0.79000
O77         O  0.05646222  0.31790296  0.39306566    -0.92420
Zr78       Zr  0.17188247  0.30103740  0.48458229     2.64680
O79         O  0.13843543  0.28939732  0.51332102    -0.97370
O80         O  0.21473412  0.28729368  0.51773714    -0.79430
O81         O  0.12948573  0.32767008  0.46904352    -0.82790
O82         O  0.13911261  0.27875040  0.44599690    -2.17500
O83         O  0.14473426  0.31351233  0.34686258    -0.66180
O84         O  0.16409702  0.27086134  0.36337726    -0.50750
C85         C  0.15481281  0.28815625  0.34394486     0.72590
O86         O  0.23084280  0.38555796  0.47084723    -0.59090
O87         O  0.18862691  0.40822637  0.47054624    -0.51070
C88         C  0.21465281  0.40149379  0.48225452     0.74390
O89         O  0.24227859  0.31044326  0.41215945    -0.70480
O90         O  0.21309489  0.26795689  0.40009431    -0.49160
C91         C  0.23655422  0.28458032  0.40059724     0.75780
O92         O  0.12895084  0.39854945  0.38500134    -0.65810
O93         O  0.13478785  0.41415621  0.42859203    -0.53010
C94         C  0.12928719  0.41803426  0.40344277     0.74160
Zr95       Zr  0.14014740  0.34790969  0.38257761     2.77540
O96         O  0.16358946  0.37527434  0.35226619    -0.96560
O97         O  0.09214420  0.34699448  0.35100936    -0.77380
Zr98       Zr  0.21686917  0.34470334  0.43596338     2.70070
O99         O  0.23293905  0.38156586  0.40815393    -0.78630
O100        O  0.26696917  0.34044868  0.46257953    -0.97710
Zr101      Zr  0.14771519  0.37262528  0.45492726     2.21500
Zr102      Zr  0.16654483  0.27602848  0.41193733     2.11130
O103        O  0.18316501  0.32229615  0.39856546    -2.46400
O104        O  0.17405041  0.37148350  0.42016269    -0.78420
O105        O  0.12357197  0.30227837  0.39547720    -0.70620
O106        O  0.18896464  0.34326116  0.46792561    -2.31580
O107        O  0.11306594  0.35249390  0.41626595    -2.27780
O108        O  0.20005661  0.29836241  0.45055845    -0.72380
H109        H  0.13129239  0.25980621  0.44995268     0.79620
H110        H  0.20460178  0.34884824  0.48293245     0.80710
H111        H  0.19294026  0.32032876  0.38408287     0.82930
H112        H  0.09652042  0.36470565  0.41094198     0.80540
H113        H  0.23156474  0.30141372  0.01453402     0.43570
H114        H  0.26878364  0.31908866  0.46508145     0.42540
H115        H  0.22979880  0.37151580  0.39034435     0.42220
H116        H  0.18052992  0.36378638  0.35043960     0.40160
H117        H  0.08557176  0.32587483  0.34815338     0.43290
H118        H  0.04296555  0.32842955  0.40182493     0.38070
H119        H  0.07244247  0.27113907  0.46461789     0.44190
H120        H  0.12625295  0.27185249  0.50445153     0.40600
H121        H  0.14940897  0.37267049  0.33465204     0.45520
H122        H  0.04579468  0.29865481  0.38695738     0.44250
H123        H  0.15234571  0.28161775  0.03006652     0.44380
H124        H  0.27999508  0.34562234  0.45047530     0.44740
O125        O  0.99363800  0.43905473  0.03337366    -0.74130
O126        O  0.01936015  0.44117698  0.00499840    -0.53040
C127        C  0.01894028  0.44359967  0.02952546     0.79600
O128        O  0.40184168  0.32895265  0.02562812    -0.58730
O129        O  0.36461818  0.35574826  0.03396412    -0.51760
C130        C  0.37734921  0.33153410  0.03310024     0.71610
O131        O  0.98739124  0.35238481  0.49864596    -0.73290
O132        O  0.00088833  0.39308557  0.47837499    -0.53850
C133        C  0.00504087  0.36737893  0.48724253     0.77610
O134        O  0.41518505  0.44425133  0.07810318    -0.58430
O135        O  0.38182088  0.40628767  0.07006888    -0.51550
C136        C  0.40141398  0.42289116  0.08622252     0.74210
Zr137      Zr  0.45264750  0.43681085  0.05410245     2.54710
O138        O  0.48191902  0.41118262  0.09110960    -0.79000
O139        O  0.47291400  0.47937588  0.08373745    -0.92420
Zr140      Zr  0.43860428  0.36088357  0.01009357     2.64680
O141        O  0.47002006  0.33993609  0.04888036    -0.97370
O142        O  0.43136946  0.31360579  0.48227166    -0.79430
O143        O  0.46698007  0.40594191  0.02168853    -0.82790
O144        O  0.42417163  0.39131247  0.04285287    -2.17500
O145        O  0.34866825  0.47688087  0.99464138    -0.66180
O146        O  0.34072794  0.44196827  0.02304848    -0.50750
C147        C  0.33150778  0.45797016  0.00315516     0.72590
O148        O  0.41173804  0.40788499  0.41463057    -0.59090
O149        O  0.45866462  0.42744232  0.43164645    -0.51070
C150        C  0.43650719  0.41925624  0.41201468     0.74390
O151        O  0.33795634  0.41075518  0.45142957    -0.70480
O152        O  0.33064761  0.39056268  0.48875649    -0.49160
C153        C  0.32176388  0.40484492  0.46776593     0.75780
O154        O  0.43589597  0.00010057  0.46273398    -0.65810
O155        O  0.47987360  0.47745320  0.46705068    -0.53010
C156        C  0.46174303  0.99777980  0.45781295     0.74160
Zr157      Zr  0.40646037  0.47610453  0.49180438     2.77540
O158        O  0.37911873  0.51576066  0.46859936    -0.96560
O159        O  0.42180947  0.01290496  0.02900937    -0.77380
Zr160      Zr  0.38830326  0.40011021  0.45049263     2.70070
O161        O  0.35154443  0.42411747  0.41774583    -0.78630
O162        O  0.37792055  0.35068846  0.43009648    -0.97710
Zr163      Zr  0.46698314  0.43010896  0.48095859     2.21500
Zr164      Zr  0.37568325  0.40528896  0.02211228     2.11130
O165        O  0.40342184  0.42416826  0.49224271    -2.46400
O166        O  0.41885257  0.44514707  0.45857510    -0.78420
O167        O  0.40421221  0.45094927  0.03442638    -0.70620
O168        O  0.43676982  0.38493620  0.46804011    -2.31580
O169        O  0.45148929  0.46483239  0.01454539    -2.27780
O170        O  0.38769207  0.37160890  0.48837848    -0.72380
H171        H  0.42440643  0.38026090  0.05863754     0.79620
H172        H  0.44351124  0.37304321  0.45507555     0.80710
H173        H  0.42310620  0.41860143  0.49968434     0.82930
H174        H  0.46389502  0.48293225  0.01805373     0.80540
H175        H  0.42349349  0.31920601  0.46364374     0.43570
H176        H  0.36007141  0.34311720  0.43572679     0.42540
H177        H  0.36196762  0.44254466  0.41414101     0.42220
H178        H  0.36594145  0.50665934  0.45211647     0.40160
H179        H  0.40360006  0.01600450  0.03527769     0.43290
H180        H  0.48782845  0.48937579  0.07566614     0.38070
H181        H  0.99225271  0.39521475  0.08294692     0.44190
H182        H  0.45716907  0.33679536  0.06152924     0.40600
H183        H  0.37508903  0.02861366  0.48000151     0.45520
H184        H  0.48424628  0.47147397  0.10050925     0.44250
H185        H  0.47313553  0.31986176  0.04263352     0.44380
H186        H  0.37087205  0.35379890  0.41076091     0.44740
O187        O  0.01446134  0.43826269  0.29811775    -0.74130
O188        O  0.02515361  0.44076680  0.25725018    -0.53040
C189        C  0.03257618  0.44114609  0.28311792     0.79600
O190        O  0.41015406  0.33248283  0.26262648    -0.58730
O191        O  0.37387605  0.36128019  0.27060413    -0.51760
C192        C  0.38498608  0.33525357  0.26766904     0.71610
O193        O  0.99492107  0.35579918  0.24765479    -0.73290
O194        O  0.00857486  0.39151134  0.22187359    -0.53850
C195        C  0.01229753  0.36751661  0.23412631     0.77610
O196        O  0.44160538  0.43234134  0.33187977    -0.58430
O197        O  0.39228016  0.42062431  0.31651851    -0.51550
C198        C  0.41592379  0.42526464  0.33552248     0.74210
Zr199      Zr  0.46392539  0.44330235  0.29529437     2.54710
O200        O  0.49546319  0.44691093  0.34035330    -0.79000
O201        O  0.46107635  0.49519515  0.30499885    -0.92420
Zr202      Zr  0.44751458  0.36694081  0.25669102     2.64680
O203        O  0.47203047  0.34877992  0.29980670    -0.97370
O204        O  0.44503428  0.31994961  0.23232926    -0.79430
O205        O  0.47918324  0.40905461  0.26669978    -0.82790
O206        O  0.43238642  0.40003770  0.28701942    -2.17500
O207        O  0.38392881  0.50496190  0.24658513    -0.66180
O208        O  0.36631675  0.47169135  0.27264762    -0.50750
C209        C  0.36876613  0.49858180  0.26335291     0.72590
O210        O  0.42434676  0.39812042  0.16531228    -0.59090
O211        O  0.46423860  0.43059606  0.17603827    -0.51070
C212        C  0.44251113  0.41694627  0.15894401     0.74390
O213        O  0.34330023  0.39776620  0.19965163    -0.70480
O214        O  0.33590847  0.40789849  0.24126992    -0.49160
C215        C  0.32666824  0.40015761  0.21640992     0.75780
O216        O  0.45682042  0.00598370  0.20736000    -0.65810
O217        O  0.49586533  0.47747400  0.21185505    -0.53010
C218        C  0.48167665  0.99870844  0.20261639     0.74160
Zr219      Zr  0.42183666  0.48273245  0.23196851     2.77540
O220        O  0.39113253  0.49540838  0.18916068    -0.96560
O221        O  0.43246935  0.03306654  0.24623604    -0.77380
Zr222      Zr  0.39560357  0.40503196  0.19759555     2.70070
O223        O  0.36763066  0.42880294  0.15875827    -0.78630
O224        O  0.37970493  0.35593604  0.17788159    -0.97710
Zr225      Zr  0.47804829  0.43128900  0.22541047     2.21500
Zr226      Zr  0.38527171  0.41852506  0.26758462     2.11130
O227        O  0.38545018  0.44221970  0.22633373    -2.46400
O228        O  0.43077209  0.44618107  0.20317879    -0.78420
O229        O  0.41898831  0.46087398  0.27347816    -0.70620
O230        O  0.44422210  0.38893991  0.21568220    -2.31580
O231        O  0.46770879  0.46726813  0.25563649    -2.27780
O232        O  0.39923825  0.38312419  0.23851762    -0.72380
H233        H  0.43199563  0.38908156  0.30271363     0.79620
H234        H  0.45030705  0.37498297  0.20386579     0.80710
H235        H  0.36627044  0.44950002  0.21895205     0.82930
H236        H  0.48279569  0.48314653  0.25955900     0.80540
H237        H  0.43117328  0.32258185  0.21491319     0.43570
H238        H  0.37190649  0.34550781  0.19166002     0.42540
H239        H  0.38104622  0.44531711  0.15578963     0.42220
H240        H  0.37058747  0.49367934  0.19144880     0.40160
H241        H  0.43365264  0.03329007  0.26568715     0.43290
H242        H  0.48178682  0.50279596  0.30774733     0.38070
H243        H  0.99982337  0.42672478  0.34454501     0.44190
H244        H  0.45595234  0.33922038  0.30682511     0.40600
H245        H  0.39261528  0.01527388  0.18716369     0.45520
H246        H  0.45693683  0.49609137  0.32299816     0.44250
H247        H  0.48325142  0.33227221  0.29531368     0.44380
H248        H  0.36201044  0.35884665  0.16346430     0.44740
O249        O  0.24277010  0.21611759  0.08217875    -0.74130
O250        O  0.24154523  0.17241015  0.10117350    -0.53040
C251        C  0.23069302  0.19679968  0.09576369     0.79600
O252        O  0.28713823  0.16894218  0.46431762    -0.58730
O253        O  0.33502772  0.18491702  0.48057219    -0.51760
C254        C  0.31302765  0.17647343  0.46143345     0.71610
O255        O  0.21103575  0.15321928  0.49980005    -0.73290
O256        O  0.20843338  0.16601551  0.04135209    -0.53850
C257        C  0.19917122  0.16756436  0.01560354     0.77610
O258        O  0.33049268  0.25285431  0.05295113    -0.58430
O259        O  0.35930685  0.22671309  0.03127654    -0.51550
C260        C  0.35198041  0.25075349  0.04095730     0.74210
Zr261      Zr  0.29212323  0.22018404  0.06594678     2.54710
O262        O  0.26921508  0.26521571  0.05051299    -0.79000
O263        O  0.31074987  0.24618243  0.10901777    -0.92420
Zr264      Zr  0.25939700  0.17201552  0.99822374     2.64680
O265        O  0.24279916  0.21905305  0.48086948    -0.97370
O266        O  0.22822823  0.15545366  0.45448042    -0.79430
O267        O  0.25400703  0.18817308  0.04123717    -0.82790
O268        O  0.29784536  0.20487692  0.02226394    -2.17500
O269        O  0.38820074  0.14266473  0.08586316    -0.66180
O270        O  0.39043282  0.17070973  0.05092415    -0.50750
C271        C  0.39829263  0.14870736  0.06515720     0.72590
O272        O  0.25027702  0.07392706  0.03097775    -0.59090
O273        O  0.24109703  0.09537008  0.06787854    -0.51070
C274        C  0.23312919  0.07898872  0.04686749     0.74390
O275        O  0.34810172  0.09338346  0.02003426    -0.70480
O276        O  0.36315075  0.13794524  0.00766700    -0.49160
C277        C  0.36862860  0.11272688  0.01737705     0.75780
O278        O  0.31539834  0.13831952  0.12988183    -0.65810
O279        O  0.26513778  0.13621905  0.11552158    -0.53010
C280        C  0.28931047  0.13580593  0.13389258     0.74160
Zr281      Zr  0.33931352  0.15212988  0.09543206     2.77540
O282        O  0.36370257  0.11703268  0.12678131    -0.96560
O283        O  0.36725515  0.19173150  0.12486276    -0.77380
Zr284      Zr  0.29809065  0.10033403  0.02861828     2.70070
O285        O  0.31123027  0.05376982  0.04885595    -0.78630
O286        O  0.28537681  0.07821334  0.98353156    -0.97710
Zr287      Zr  0.25579603  0.14589132  0.06767293     2.21500
Zr288      Zr  0.34008945  0.17607767  0.02756735     2.11130
O289        O  0.33558911  0.13367289  0.05273788    -2.46400
O290        O  0.29872551  0.11842028  0.07301240    -0.78420
O291        O  0.33767346  0.19525605  0.07067966    -0.70620
O292        O  0.25681860  0.12936055  0.02334008    -2.31580
O293        O  0.29592463  0.17818761  0.09142084    -2.27780
O294        O  0.30083972  0.14320383  0.00326483    -0.72380
H295        H  0.30039270  0.22163722  0.01179446     0.79620
H296        H  0.23972053  0.11747195  0.01399908     0.80710
H297        H  0.35081416  0.12030623  0.05700450     0.82930
H298        H  0.29427973  0.18468989  0.10897147     0.80540
H299        H  0.23080040  0.13405985  0.45318575     0.43570
H300        H  0.29858214  0.08796485  0.47449487     0.42540
H301        H  0.32647342  0.05939618  0.06536091     0.42220
H302        H  0.36802033  0.10073326  0.11542447     0.40160
H303        H  0.38650812  0.19364496  0.11980636     0.43290
H304        H  0.29380032  0.24528111  0.11761449     0.38070
H305        H  0.27255996  0.26705214  0.03231581     0.44190
H306        H  0.26073174  0.23121523  0.47993440     0.40600
H307        H  0.38328696  0.12676853  0.13527020     0.45520
H308        H  0.31296457  0.26707896  0.10459430     0.44250
H309        H  0.23302546  0.21451434  0.46187312     0.44380
H310        H  0.29259667  0.05815281  0.98562346     0.44740
O311        O  0.28426318  0.25164550  0.33677928    -0.74130
O312        O  0.25054236  0.21610744  0.34289820    -0.53040
C313        C  0.26202358  0.24239393  0.34608061     0.79600
O314        O  0.28712735  0.15518756  0.21397096    -0.58730
O315        O  0.33747557  0.15970746  0.22520073    -0.51760
C316        C  0.31247955  0.15322672  0.20860394     0.71610
O317        O  0.21993380  0.18775346  0.25327055    -0.73290
O318        O  0.21499565  0.18835084  0.29625432    -0.53850
C319        C  0.20500395  0.19131722  0.27096513     0.77610
O320        O  0.34734386  0.25558681  0.28851180    -0.58430
O321        O  0.36885546  0.22123223  0.26699236    -0.51550
C322        C  0.36447373  0.24900879  0.27381447     0.74210
Zr323      Zr  0.31493798  0.22960722  0.30849210     2.54710
O324        O  0.29153520  0.27161442  0.28625108    -0.79000
O325        O  0.35149190  0.25717799  0.34342987    -0.92420
Zr326      Zr  0.26834113  0.17659854  0.24957266     2.64680
O327        O  0.26483445  0.21568466  0.21850289    -0.97370
O328        O  0.22863469  0.15060916  0.21653278    -0.79430
O329        O  0.26907618  0.20591292  0.28885582    -0.82790
O330        O  0.31354869  0.20294176  0.26684038    -2.17500
O331        O  0.39834860  0.15984002  0.33687987    -0.66180
O332        O  0.40136549  0.16279259  0.29342086    -0.50750
C333        C  0.41330482  0.16061269  0.31831531     0.72590
O334        O  0.23855489  0.09718082  0.29902208    -0.59090
O335        O  0.22526256  0.13605132  0.32147182    -0.51070
C336        C  0.21963952  0.11111051  0.30902864     0.74390
O337        O  0.32464149  0.07782192  0.27920681    -0.70480
O338        O  0.35857544  0.10987438  0.26677776    -0.49160
C339        C  0.34791714  0.08289961  0.27057053     0.75780
O340        O  0.32408080  0.16174027  0.38306420    -0.65810
O341        O  0.27373328  0.16353982  0.36886866    -0.53010
C342        C  0.29783740  0.16241449  0.38694713     0.74160
Zr343      Zr  0.34714909  0.16053166  0.34574569     2.77540
O344        O  0.36362883  0.11517572  0.36683739    -0.96560
O345        O  0.38024766  0.18943450  0.38212276    -0.77380
Zr346      Zr  0.28992440  0.10823641  0.29231828     2.70070
O347        O  0.29659701  0.06918568  0.32412281    -0.78630
O348        O  0.26437902  0.07781867  0.25323912    -0.97710
Zr349      Zr  0.26282369  0.17293664  0.32185231     2.21500
Zr350      Zr  0.34939747  0.16612432  0.27352648     2.11130
O351        O  0.33905074  0.13260925  0.30615642    -2.46400
O352        O  0.29816574  0.13631851  0.33254824    -0.78420
O353        O  0.35297719  0.19501506  0.31400364    -0.70620
O354        O  0.25687721  0.14522528  0.28115903    -2.31580
O355        O  0.31045494  0.19614081  0.34043058    -2.27780
O356        O  0.30198001  0.13978714  0.25942118    -0.72380
H357        H  0.31608778  0.21618383  0.25314408     0.79620
H358        H  0.23682510  0.13812413  0.27315893     0.80710
H359        H  0.35383630  0.11839494  0.31071362     0.82930
H360        H  0.31133853  0.20671777  0.35711850     0.80540
H361        H  0.23238988  0.12957931  0.21919596     0.43570
H362        H  0.27539630  0.08216335  0.23935936     0.42540
H363        H  0.31739100  0.07243184  0.33435819     0.42220
H364        H  0.38004397  0.10956404  0.35884445     0.40160
H365        H  0.38598623  0.20741025  0.37368718     0.43290
H366        H  0.34734530  0.25052000  0.36040123     0.38070
H367        H  0.28233367  0.26405279  0.26782607     0.44190
H368        H  0.28161851  0.21365284  0.20992680     0.40600
H369        H  0.37337298  0.12141177  0.38551017     0.45520
H370        H  0.34533665  0.27767224  0.34219982     0.44250
H371        H  0.24717908  0.20923580  0.20430823     0.44380
H372        H  0.26868799  0.05734465  0.25805485     0.44740
O373        O  0.07279727  0.50170703  0.08156938    -0.74130
O374        O  0.05519045  0.49206118  0.11706574    -0.53040
C375        C  0.05787647  0.48472631  0.09331144     0.79600
O376        O  0.16478664  0.06832987  0.07452859    -0.58730
O377        O  0.14508528  0.11153068  0.06003204    -0.51760
C378        C  0.16250511  0.09025797  0.05937035     0.71610
O379        O  0.14978307  0.00637268  0.13482654    -0.73290
O380        O  0.11367309  0.50058879  0.15819134    -0.53850
C381        C  0.13716651  0.49306637  0.15161454     0.77610
O382        O  0.06418076  0.07177837  0.02891986    -0.58430
O383        O  0.08625669  0.11799540  0.03582359    -0.51550
C384        C  0.07430534  0.09548614  0.02073221     0.74210
Zr385      Zr  0.05779344  0.05070828  0.06932717     2.54710
O386        O  0.03913605  0.01885390  0.02950259    -0.79000
O387        O  0.00379662  0.04819017  0.05986144    -0.92420
Zr388      Zr  0.14316355  0.05119097  0.10950609     2.64680
O389        O  0.15697781  0.00934374  0.08557929    -0.97370
O390        O  0.19370506  0.06422413  0.13427776    -0.79430
O391        O  0.09486086  0.03063089  0.10245286    -0.82790
O392        O  0.10657497  0.07046658  0.07441400    -2.17500
O393        O  0.04430753  0.15894919  0.10984739    -0.66180
O394        O  0.07907847  0.16712894  0.08525264    -0.50750
C395        C  0.06001804  0.17580962  0.09818871     0.72590
O396        O  0.10780474  0.09461284  0.19753357    -0.59090
O397        O  0.09088614  0.04623053  0.19035861    -0.51070
C398        C  0.09667628  0.07021716  0.20474664     0.74390
O399        O  0.16241391  0.14755955  0.14162218    -0.70480
O400        O  0.14514094  0.15984685  0.09828881    -0.49160
C401        C  0.16474493  0.16212823  0.12049001     0.75780
O402        O  0.51481124  0.07964097  0.15008167    -0.65810
O403        O  0.03675507  0.03577507  0.15936861    -0.53010
C404        C  0.01649845  0.05341955  0.16058477     0.74160
Zr405      Zr  0.04223604  0.10760860  0.12106715     2.77540
O406        O  0.02405194  0.13702361  0.15339157    -0.96560
O407        O  0.49540544  0.10699275  0.08907912    -0.77380
Zr408      Zr  0.12855109  0.11141192  0.15944890     2.70070
O409        O  0.12632859  0.15769104  0.18343540    -0.78630
O410        O  0.17377368  0.10174838  0.19182256    -0.97710
Zr411      Zr  0.08042577  0.03785956  0.14262145     2.21500
Zr412      Zr  0.10569313  0.12171080  0.08408226     2.11130
O413        O  0.09182023  0.12958141  0.12587929    -2.46400
O414        O  0.08001842  0.08878995  0.15352908    -0.78420
O415        O  0.05585042  0.10156466  0.07914783    -0.70620
O416        O  0.12976114  0.06010092  0.15032858    -2.31580
O417        O  0.04219945  0.05690738  0.10942673    -2.27780
O418        O  0.14235924  0.10218429  0.11878051    -0.72380
H419        H  0.11159914  0.06603094  0.05769077     0.79620
H420        H  0.14308933  0.05174243  0.16513251     0.80710
H421        H  0.09387596  0.14998924  0.13176093     0.82930
H422        H  0.02334226  0.04652079  0.10849816     0.80540
H423        H  0.19512701  0.05556237  0.15192289     0.43570
H424        H  0.18976408  0.10739644  0.18285016     0.42540
H425        H  0.10549049  0.15807740  0.18481584     0.42220
H426        H  0.04073126  0.15126895  0.16154660     0.40160
H427        H  0.48246250  0.09263952  0.09585535     0.43290
H428        H  0.49753595  0.02845110  0.05187986     0.38070
H429        H  0.05567773  0.51179780  0.02421064     0.44190
H430        H  0.14666149  0.01133061  0.06665667     0.40600
H431        H  0.50943718  0.14925397  0.14331559     0.45520
H432        H  0.99792772  0.06249938  0.04574308     0.44250
H433        H  0.17821876  0.01338081  0.08609809     0.44380
H434        H  0.17539069  0.11708523  0.20616690     0.44740
O435        O  0.03388872  0.48951095  0.32064864    -0.74130
O436        O  0.06341960  0.48413196  0.36108466    -0.53040
C437        C  0.05431048  0.47631551  0.33599063     0.79600
O438        O  0.14600508  0.08467058  0.33055646    -0.58730
O439        O  0.11627059  0.12100979  0.31265668    -0.51760
C440        C  0.14061308  0.10697967  0.31630930     0.71610
O441        O  0.13154752  0.51276078  0.38402488    -0.73290
O442        O  0.09675700  0.50145136  0.40767468    -0.53850
C443        C  0.12096440  0.49764028  0.40074209     0.77610
O444        O  0.05670838  0.05958164  0.27160550    -0.58430
O445        O  0.06109253  0.10932525  0.27818772    -0.51550
C446        C  0.06212390  0.08583472  0.26423339     0.74210
Zr447      Zr  0.04152761  0.03781810  0.31036564     2.54710
O448        O  0.03870166  0.00252290  0.27351906    -0.79000
O449        O  0.99335359  0.04997674  0.28434786    -0.92420
Zr450      Zr  0.12303236  0.05645544  0.35825709     2.64680
O451        O  0.14480533  0.02183983  0.33264200    -0.97370
O452        O  0.17022146  0.07508640  0.38675329    -0.79430
O453        O  0.07973395  0.02679476  0.34775239    -0.82790
O454        O  0.08581180  0.06723784  0.32009051    -2.17500
O455        O  0.99687554  0.13017391  0.34828556    -0.66180
O456        O  0.01663929  0.13622045  0.31249696    -0.50750
C457        C  0.99544151  0.13954751  0.32508366     0.72590
O458        O  0.07977770  0.08902913  0.44097841    -0.59090
O459        O  0.06712332  0.03976856  0.43522288    -0.51070
C460        C  0.07249531  0.06426147  0.44940130     0.74390
O461        O  0.09859538  0.15676306  0.38594188    -0.70480
O462        O  0.08459633  0.16204594  0.34079561    -0.49160
C463        C  0.09491061  0.17159712  0.36468404     0.75780
O464        O  0.48498752  0.05424017  0.38975424    -0.65810
O465        O  0.01776829  0.00888973  0.39846849    -0.53010
C466        C  0.48973723  0.02894520  0.40021014     0.74160
Zr467      Zr  0.00825380  0.08215907  0.36256287     2.77540
O468        O  0.98313177  0.10639423  0.39303057    -0.96560
O469        O  0.45921303  0.07535283  0.32828661    -0.77380
Zr470      Zr  0.09017177  0.10832621  0.40158558     2.70070
O471        O  0.08213465  0.14694555  0.43226353    -0.78630
O472        O  0.14175472  0.11177870  0.42632518    -0.97710
Zr473      Zr  0.06236554  0.02708057  0.38728678     2.21500
Zr474      Zr  0.06737425  0.11407917  0.32599593     2.11130
O475        O  0.04997148  0.11726481  0.36643274    -2.46400
O476        O  0.04870204  0.07447171  0.39708975    -0.78420
O477        O  0.02370909  0.08249740  0.32091501    -0.70620
O478        O  0.10517075  0.06046255  0.39689526    -2.31580
O479        O  0.02249278  0.03579621  0.35014309    -2.27780
O480        O  0.10781887  0.10480648  0.36282877    -0.72380
H481        H  0.09612032  0.06618485  0.30596693     0.79620
H482        H  0.11964356  0.05595757  0.41276582     0.80710
H483        H  0.04528633  0.13714931  0.36996109     0.82930
H484        H  0.50228602  0.02503903  0.34675004     0.80540
H485        H  0.17281809  0.06323421  0.40287585     0.43570
H486        H  0.15095864  0.12841811  0.41853919     0.42540
H487        H  0.06087132  0.15051669  0.42616540     0.42220
H488        H  0.99427754  0.12559560  0.39826873     0.40160
H489        H  0.46049327  0.08663297  0.31239504     0.43290
H490        H  0.48874233  0.03417804  0.26612588     0.38070
H491        H  0.06216482  0.50387091  0.27476528     0.44190
H492        H  0.13599965  0.02567568  0.31370980     0.40600
H493        H  0.46108342  0.11529851  0.37828524     0.45520
H494        H  0.98748416  0.03350799  0.27094501     0.44250
H495        H  0.16580223  0.02904006  0.33559001     0.44380
H496        H  0.14120941  0.11921841  0.44443601     0.44740
C497        C  0.08830708  0.06896422  0.23067092    -0.15270
C498        C  0.07237903  0.08936973  0.23924271    -0.30450
H499        H  0.09191759  0.04868793  0.24129550     0.13750
H500        H  0.06838783  0.10960931  0.22863851     0.14330
C501        C  0.06973994  0.06508391  0.47723494    -0.15270
C502        C  0.07353024  0.09541602  0.99212525    -0.30450
H503        H  0.06570774  0.04434801  0.48609372     0.13750
H504        H  0.07903358  0.11597774  0.98367821     0.14330
C505        C  0.44619683  0.15791631  0.32699849    -0.15270
C506        C  0.46636711  0.15481913  0.31139867    -0.30450
H507        H  0.45383778  0.15628317  0.34844907     0.13750
H508        H  0.45966072  0.15680595  0.28991862     0.14330
C509        C  0.16615716  0.11698909  0.30548544    -0.15270
C510        C  0.18893591  0.09893820  0.30592141    -0.30450
H511        H  0.16894602  0.14028754  0.30204738     0.13750
H512        H  0.18569652  0.07532763  0.30760915     0.14330
C513        C  0.29507968  0.16322023  0.41434556    -0.15270
C514        C  0.31735962  0.17413399  0.43436562    -0.30450
H515        H  0.27348221  0.15676054  0.41775553     0.13750
H516        H  0.33865641  0.18143685  0.43076613     0.14330
C517        C  0.31286349  0.14349494  0.18136549    -0.15270
C518        C  0.28794504  0.13622948  0.16217818    -0.30450
H519        H  0.33439615  0.14479592  0.17653400     0.13750
H520        H  0.26636896  0.13519266  0.16692156     0.14330
C521        C  0.41364954  0.12556825  0.05370036    -0.15270
C522        C  0.39971446  0.10857436  0.03163997    -0.30450
H523        H  0.43521168  0.11982764  0.06493763     0.13750
H524        H  0.41053141  0.08973388  0.02591496     0.14330
C525        C  0.18270289  0.09111411  0.04104910    -0.15270
C526        C  0.20159397  0.06944343  0.04033029    -0.30450
H527        H  0.18803305  0.11267776  0.03450885     0.13750
H528        H  0.19627788  0.04740551  0.04606408     0.14330
C529        C  0.06379442  0.44459284  0.29781141    -0.15270
C530        C  0.07217823  0.45626943  0.32324220    -0.30450
H531        H  0.08026439  0.43514431  0.28879170     0.13750
H532        H  0.09522731  0.45496276  0.33325951     0.14330
C533        C  0.50050156  0.01828313  0.18992751    -0.15270
C534        C  0.49447104  0.04283727  0.17578764    -0.30450
H535        H  0.52212378  0.00963541  0.19143112     0.13750
H536        H  0.97206435  0.05003044  0.17130975     0.14330
C537        C  0.36912298  0.30556481  0.27054204    -0.15270
C538        C  0.37878708  0.27745503  0.26561728    -0.30450
H539        H  0.34937408  0.30699092  0.27818068     0.13750
H540        H  0.39789430  0.27570218  0.25709989     0.14330
C541        C  0.35481166  0.02616800  0.27182008    -0.15270
C542        C  0.36274050  0.05483344  0.26522604    -0.30450
H543        H  0.33763779  0.52266594  0.28286018     0.13750
H544        H  0.38063589  0.05793434  0.25514400     0.14330
C545        C  0.43866641  0.42381249  0.38420984    -0.15270
C546        C  0.41426540  0.42123006  0.36350637    -0.30450
H547        H  0.46028214  0.43008599  0.38079459     0.13750
H548        H  0.39260019  0.41550570  0.36708242     0.14330
C549        C  0.40936238  0.41610374  0.11445485    -0.15270
C550        C  0.43611004  0.42435256  0.13062610    -0.30450
H551        H  0.39336940  0.40220705  0.12159330     0.13750
H552        H  0.45219394  0.43807702  0.12347478     0.14330
C553        C  0.04428985  0.45444267  0.05137443    -0.15270
C554        C  0.04168094  0.45893943  0.07700564    -0.30850
H555        H  0.06334852  0.46409872  0.04520610     0.13750
H556        H  0.02362175  0.44794332  0.08360821     0.14330
C557        C  0.46862199  0.01608050  0.41498525    -0.15270
C558        C  0.47348265  0.01990192  0.44174687    -0.30450
H559        H  0.45258917  0.99888086  0.40475418     0.13750
H560        H  0.49657109  0.53212569  0.45365205     0.14330
C561        C  0.36176705  0.30501717  0.04075610    -0.15270
C562        C  0.36970956  0.27760171  0.03700841    -0.30450
H563        H  0.34199413  0.30810733  0.04806910     0.13750
H564        H  0.38893550  0.27455144  0.02885767     0.14330
C565        C  0.30388043  0.45014551  0.48130961    -0.15270
C566        C  0.29728481  0.42402723  0.46759421    -0.30450
H567        H  0.28701113  0.46567263  0.48137004     0.13750
H568        H  0.27505251  0.41791082  0.45606013     0.14330
C569        C  0.17853278  0.19780613  0.47643971    -0.15270
C570        C  0.18136153  0.19214583  0.50291743    -0.30450
H571        H  0.18277544  0.18086563  0.46284709     0.13750
H572        H  0.17645965  0.20883542  0.51645078     0.14330
C573        C  0.25739902  0.27350682  0.38531034    -0.15270
C574        C  0.24653150  0.26258441  0.36018176    -0.30450
H575        H  0.28078745  0.27307092  0.39475491     0.13750
H576        H  0.22288109  0.26313270  0.35177869     0.14330
C577        C  0.22349375  0.40626550  0.51179520    -0.15270
C578        C  0.20903477  0.39156108  0.52824740    -0.30450
H579        H  0.24388623  0.41920419  0.52052784     0.13750
H580        H  0.21822006  0.39319591  0.54966372     0.14330
C581        C  0.03208584  0.35466174  0.48310276    -0.15270
C582        C  0.05470882  0.37257650  0.47909008    -0.30450
H583        H  0.03257250  0.33087949  0.48132220     0.13750
H584        H  0.05465275  0.39625062  0.48238346     0.14330
C585        C  0.08737075  0.21595126  0.38523529    -0.15270
C586        C  0.10065173  0.20235738  0.36852704    -0.30450
H587        H  0.07108797  0.20430245  0.39396304     0.13750
H588        H  0.11618217  0.21337764  0.35861156     0.14330
C589        C  0.12220151  0.44689457  0.39478827    -0.15270
C590        C  0.13447098  0.47092761  0.40919284    -0.30450
H591        H  0.10564407  0.44839551  0.37637492     0.13750
H592        H  0.15107754  0.47022950  0.42784300     0.14330
C593        C  0.13940374  0.29103701  0.29472568    -0.15270
C594        C  0.15768575  0.28025776  0.31631629    -0.30450
H595        H  0.11956107  0.30111779  0.29730229     0.13750
H596        H  0.17667425  0.26856948  0.31387610     0.14330
C597        C  0.20259012  0.31547443  0.08631766    -0.15270
C598        C  0.22555139  0.30345829  0.10292630    -0.30450
H599        H  0.20114780  0.31565347  0.06501726     0.13750
H600        H  0.24289672  0.29393013  0.09517661     0.14330
C601        C  0.17521205  0.20170523  0.26049551    -0.15270
C602        C  0.16325276  0.19737238  0.23408538    -0.30450
H603        H  0.16890353  0.22010118  0.27140398     0.13750
H604        H  0.17013589  0.17871314  0.22390921     0.14330
C605        C  0.20055917  0.19776196  0.10220850    -0.15270
C606        C  0.19381889  0.17906809  0.12097299    -0.30450
H607        H  0.18291829  0.20704487  0.08774786     0.13750
H608        H  0.21230201  0.17158510  0.13585174     0.14330
C609        C  0.27569502  0.39095163  0.22218399    -0.15270
C610        C  0.29475291  0.39273792  0.20611124    -0.30450
H611        H  0.28343254  0.39616873  0.24346389     0.13750
H612        H  0.28722654  0.38620044  0.18505975     0.14330
C613        C  0.03968232  0.35421110  0.23322333    -0.15270
C614        C  0.04020227  0.32932221  0.21909276    -0.30450
H615        H  0.05951923  0.36894746  0.23862029     0.13750
H616        H  0.02071062  0.31429418  0.21295186     0.14330
C617        C  0.06053653  0.20758994  0.10461927    -0.15270
C618        C  0.06058992  0.21699500  0.12997282    -0.30450
H619        H  0.06911774  0.22223340  0.09153398     0.13750
H620        H  0.05378977  0.20173331  0.14357664     0.14330
C621        C  0.14910168  0.46649610  0.16363636    -0.15270
C622        C  0.16445756  0.44855493  0.15180049    -0.30450
H623        H  0.14032352  0.45887260  0.18026297     0.13750
H624        H  0.17365120  0.45566733  0.13528908     0.14330
O625        O  0.14157750  0.40718199  0.66808331    -0.74130
O626        O  0.18213949  0.40100237  0.65128746    -0.53040
C627        C  0.16259369  0.41677317  0.65750932     0.79600
O628        O  0.16891889  0.31025664  0.76708750    -0.58730
O629        O  0.12625841  0.28262322  0.74814449    -0.51760
C630        C  0.14572605  0.29405761  0.76848103     0.71610
O631        O  0.23119197  0.36716964  0.73069333    -0.73290
O632        O  0.23299888  0.37627494  0.68761237    -0.53850
C633        C  0.24346803  0.37863102  0.71305375     0.77610
O634        O  0.07890809  0.34726849  0.70188509    -0.58430
O635        O  0.07528391  0.29810518  0.70890750    -0.51550
C636        C  0.06653094  0.32423950  0.70971568     0.74210
Zr637      Zr  0.11925196  0.36256340  0.68168249     2.54710
O638        O  0.11534384  0.40157199  0.71371260    -0.79000
O639        O  0.07681684  0.38085196  0.65064010    -0.92420
Zr640      Zr  0.18897983  0.33316625  0.73174990     2.64680
O641        O  0.18783902  0.37392947  0.76299817    -0.97370
O642        O  0.23091046  0.31185444  0.76097855    -0.79430
O643        O  0.17139493  0.36532652  0.69691137    -0.82790
O644        O  0.13668043  0.33101823  0.71672454    -2.17500
O645        O  0.08761648  0.25941158  0.62661283    -0.66180
O646        O  0.08505396  0.24704102  0.66862552    -0.50750
C647        C  0.07807488  0.24291707  0.64285138     0.72590
O648        O  0.21271732  0.27876148  0.63932434    -0.59090
O649        O  0.22960927  0.32642788  0.64533704    -0.51070
C650        C  0.22513959  0.30194707  0.63172131     0.74390
O651        O  0.17871213  0.23095393  0.70639678    -0.70480
O652        O  0.13445020  0.23560632  0.71757667    -0.49160
C653        C  0.15816071  0.22247273  0.71813439     0.75780
O654        O  0.15730133  0.30503303  0.59977025    -0.65810
O655        O  0.18183480  0.34922547  0.61140543    -0.53010
C656        C  0.17722274  0.32490727  0.59759032     0.74160
Zr657      Zr  0.12156109  0.30120727  0.62805268     2.77540
O658        O  0.10043187  0.27768891  0.58415341    -0.96560
O659        O  0.08511852  0.33456746  0.60613557    -0.77380
Zr660      Zr  0.19266767  0.27041841  0.67894131     2.70070
O661        O  0.20141247  0.22190883  0.66323625    -0.78630
O662        O  0.24451586  0.27304909  0.70251666    -0.97710
Zr663      Zr  0.19003394  0.35010977  0.65966912     2.21500
Zr664      Zr  0.12043914  0.28203419  0.69951846     2.11130
O665        O  0.14026246  0.26751489  0.66253173    -2.46400
O666        O  0.17280623  0.30153235  0.64452105    -0.78420
O667        O  0.10139454  0.31433466  0.66467571    -0.70620
O668        O  0.20910346  0.31895558  0.69532333    -2.31580
O669        O  0.13749977  0.34998977  0.64382024    -2.27780
O670        O  0.17301520  0.28452233  0.71533838    -0.72380
H671        H  0.12832330  0.33621810  0.73158977     0.79620
H672        H  0.23038131  0.32148306  0.70000616     0.80710
H673        H  0.13505108  0.24719650  0.65676710     0.82930
H674        H  0.13224114  0.36380398  0.62983994     0.80540
H675        H  0.24679143  0.31285631  0.75110197     0.43570
H676        H  0.24467132  0.26405287  0.71979952     0.42540
H677        H  0.18182498  0.21109847  0.66017596     0.42220
H678        H  0.11445985  0.26281708  0.58174351     0.40160
H679        H  0.06633257  0.32703293  0.61012562     0.43290
H680        H  0.08523713  0.39111105  0.63714028     0.38070
H681        H  0.13552676  0.40458870  0.72532601     0.44190
H682        H  0.16748428  0.37258940  0.76579589     0.40600
H683        H  0.10240081  0.29285335  0.57115300     0.45520
H684        H  0.07025926  0.39683583  0.66090220     0.44250
H685        H  0.20044882  0.36820872  0.78014621     0.44380
H686        H  0.25402686  0.25941868  0.69230988     0.44740
O687        O  0.07445068  0.33447464  0.95843001    -0.74130
O688        O  0.10026806  0.37894554  0.96718438    -0.53040
C689        C  0.07816886  0.36096672  0.96804749     0.79600
O690        O  0.17571449  0.24861202  0.98404983    -0.58730
O691        O  0.17353819  0.23212753  0.94121716    -0.51760
C692        C  0.17543731  0.22802901  0.96653999     0.71610
O693        O  0.18769495  0.34235066  0.51886918    -0.73290
O694        O  0.16082831  0.38045866  0.00240017    -0.53850
C695        C  0.18346104  0.37021692  0.51747820     0.77610
O696        O  0.08643999  0.25605096  0.91176538    -0.58430
O697        O  0.12180877  0.25052133  0.88856691    -0.51550
C698        C  0.09746123  0.24287669  0.89453938     0.74210
Zr699      Zr  0.09712391  0.30544621  0.93005089     2.54710
O700        O  0.06098855  0.27685181  0.94794297    -0.79000
O701        O  0.05591967  0.31727511  0.89393795    -0.92420
Zr702      Zr  0.17212101  0.30106913  0.98472854     2.64680
O703        O  0.13942280  0.28987569  0.01423997    -0.97370
O704        O  0.21551309  0.28761258  0.01736836    -0.79430
O705        O  0.12943852  0.32725236  0.96921358    -0.82790
O706        O  0.13904963  0.27831420  0.94644885    -2.17500
O707        O  0.14280130  0.31253162  0.84700827    -0.66180
O708        O  0.16255947  0.27014754  0.86359484    -0.50750
C709        C  0.15287519  0.28719675  0.84410208     0.72590
O710        O  0.23034014  0.38575821  0.96972425    -0.59090
O711        O  0.18805897  0.40812260  0.96990132    -0.51070
C712        C  0.21426530  0.40162073  0.98131954     0.74390
O713        O  0.24130723  0.31065551  0.91101577    -0.70480
O714        O  0.21267195  0.26770893  0.90027617    -0.49160
C715        C  0.23574143  0.28456050  0.89996277     0.75780
O716        O  0.12820255  0.39805443  0.88485648    -0.65810
O717        O  0.13403276  0.41381822  0.92839430    -0.53010
C718        C  0.12860118  0.41763386  0.90322918     0.74160
Zr719      Zr  0.13873446  0.34722466  0.88253088     2.77540
O720        O  0.16099945  0.37386572  0.85101865    -0.96560
O721        O  0.09012858  0.34639128  0.85191562    -0.77380
Zr722      Zr  0.21609527  0.34460503  0.93521559     2.70070
O723        O  0.23191955  0.38143186  0.90724191    -0.78630
O724        O  0.26626223  0.34009153  0.96156859    -0.97710
Zr725      Zr  0.14718271  0.37231061  0.95480528     2.21500
Zr726      Zr  0.16626382  0.27579352  0.91229595     2.11130
O727        O  0.18205202  0.32194652  0.89813182    -2.46400
O728        O  0.17299333  0.37108566  0.91969643    -0.78420
O729        O  0.12292610  0.30141424  0.89574061    -0.70620
O730        O  0.18863422  0.34320882  0.96751287    -2.31580
O731        O  0.11217382  0.35174179  0.91653834    -2.27780
O732        O  0.20008653  0.29827952  0.95053411    -0.72380
H733        H  0.13123397  0.25933336  0.95033534     0.79620
H734        H  0.20441686  0.34901858  0.98232936     0.80710
H735        H  0.19158467  0.31987911  0.88349621     0.82930
H736        H  0.09553599  0.36386083  0.91132628     0.80540
H737        H  0.23081535  0.30149835  0.51564140     0.43570
H738        H  0.26790923  0.31872996  0.96417226     0.42540
H739        H  0.22630631  0.37226618  0.88898071     0.42220
H740        H  0.17787539  0.36237950  0.84900527     0.40160
H741        H  0.08393397  0.32523667  0.84844398     0.43290
H742        H  0.04199493  0.32662945  0.90302244     0.38070
H743        H  0.07244864  0.27014456  0.96521141     0.44190
H744        H  0.12644976  0.27287559  0.00521905     0.40600
H745        H  0.14642439  0.37086875  0.83365346     0.45520
H746        H  0.04588532  0.29796995  0.88701983     0.44250
H747        H  0.15127347  0.28191039  0.52959809     0.44380
H748        H  0.27920224  0.34500758  0.94932791     0.44740
O749        O  0.99284898  0.43907760  0.53218982    -0.74130
O750        O  0.01939051  0.44222178  0.50471804    -0.53040
C751        C  0.01840064  0.44434819  0.52909963     0.79600
O752        O  0.40130637  0.32830498  0.52457519    -0.58730
O753        O  0.36557380  0.35579278  0.53480440    -0.51760
C754        C  0.37758681  0.33130321  0.53312333     0.71610
O755        O  0.98718391  0.35173600  0.99914230    -0.73290
O756        O  0.00074091  0.39220825  0.97859928    -0.53850
C757        C  0.00488550  0.36659510  0.98769116     0.77610
O758        O  0.41495159  0.44374788  0.57649633    -0.58430
O759        O  0.38257847  0.40502621  0.56869680    -0.51550
C760        C  0.40187200  0.42200892  0.58464017     0.74210
Zr761      Zr  0.45174538  0.43579758  0.55234063     2.54710
O762        O  0.47977198  0.41033524  0.59013532    -0.79000
O763        O  0.47249245  0.47760204  0.58277566    -0.92420
Zr764      Zr  0.43773290  0.35971094  0.50856507     2.64680
O765        O  0.46802036  0.33614285  0.54642871    -0.97370
O766        O  0.43357570  0.31410901  0.98492459    -0.79430
O767        O  0.46774252  0.40397093  0.52139219    -0.82790
O768        O  0.42394775  0.38968372  0.54217240    -2.17500
O769        O  0.35258507  0.46803475  0.48208271    -0.66180
O770        O  0.34402270  0.44505902  0.51781419    -0.50750
C771        C  0.33493563  0.45730993  0.49565547     0.72590
O772        O  0.40763264  0.41412497  0.91570054    -0.59090
O773        O  0.45619731  0.42850683  0.93215608    -0.51070
C774        C  0.43316627  0.42311701  0.91276451     0.74390
O775        O  0.33189585  0.40084378  0.95167599    -0.70480
O776        O  0.32858340  0.39028059  0.99351478    -0.49160
C777        C  0.31884229  0.40212980  0.97128016     0.75780
O778        O  0.43721038  0.00018878  0.96406778    -0.65810
O779        O  0.47101126  0.47932796  0.96371861    -0.53010
C780        C  0.46356716  0.99751758  0.96032658     0.74160
Zr781      Zr  0.40267820  0.47742922  0.99464350     2.77540
O782        O  0.37856345  0.51816631  0.97051169    -0.96560
O783        O  0.42143214  0.01308451  0.52816469    -0.77380
Zr784      Zr  0.38553688  0.39871913  0.95139521     2.70070
O785        O  0.35159598  0.40101778  0.90779238    -0.78630
O786        O  0.38275988  0.34662763  0.93859820    -0.97710
Zr787      Zr  0.46425188  0.43203890  0.98111009     2.21500
Zr788      Zr  0.37624510  0.40465471  0.52105353     2.11130
O789        O  0.37612914  0.43205677  0.98272167    -2.46400
O790        O  0.41494629  0.44463288  0.96199701    -0.78420
O791        O  0.40347790  0.45165658  0.53218519    -0.70620
O792        O  0.43503919  0.38637053  0.96948948    -2.31580
O793        O  0.45427624  0.46391055  0.51356595    -2.27780
O794        O  0.38901354  0.37224953  0.99070847    -0.72380
H795        H  0.42430177  0.37866691  0.55799416     0.79620
H796        H  0.44203768  0.37479770  0.95648063     0.80710
H797        H  0.35871403  0.43921439  0.97190145     0.82930
H798        H  0.46721547  0.48160841  0.51752529     0.80540
H799        H  0.43515579  0.31942554  0.96677751     0.43570
H800        H  0.36166254  0.34019259  0.93647948     0.42540
H801        H  0.34753280  0.42208932  0.90600146     0.42220
H802        H  0.36180682  0.50892312  0.95674246     0.40160
H803        H  0.40353693  0.01525461  0.53516481     0.43290
H804        H  0.48793674  0.48709900  0.57497295     0.38070
H805        H  0.99226376  0.39571793  0.58308588     0.44190
H806        H  0.45639789  0.33607690  0.56026491     0.40600
H807        H  0.37560430  0.02878531  0.98066495     0.45520
H808        H  0.48345594  0.46914782  0.59941574     0.44250
H809        H  0.46742146  0.31523350  0.54042929     0.44380
H810        H  0.38573372  0.34620468  0.92017503     0.44740
O811        O  0.01434584  0.43842255  0.79778768    -0.74130
O812        O  0.02492292  0.44156563  0.75691598    -0.53040
C813        C  0.03240294  0.44165760  0.78276310     0.79600
O814        O  0.40878772  0.33191291  0.76355216    -0.58730
O815        O  0.37261782  0.36091626  0.77153800    -0.51760
C816        C  0.38370702  0.33481329  0.76871771     0.71610
O817        O  0.99477377  0.35606911  0.74737057    -0.73290
O818        O  0.00848791  0.39207822  0.72189932    -0.53850
C819        C  0.01221017  0.36798467  0.73400907     0.77610
O820        O  0.44036883  0.43456210  0.83216218    -0.58430
O821        O  0.39119068  0.42161868  0.81684542    -0.51550
C822        C  0.41461979  0.42730086  0.83583236     0.74210
Zr823      Zr  0.46282171  0.44328941  0.79476159     2.54710
O824        O  0.49901342  0.42381963  0.83114226    -0.79000
O825        O  0.46046213  0.48857644  0.82001196    -0.92420
Zr826      Zr  0.44593902  0.36592178  0.75674127     2.64680
O827        O  0.47082376  0.34833527  0.79997124    -0.97370
O828        O  0.44380391  0.31819930  0.73363216    -0.79430
O829        O  0.47719652  0.40817607  0.76613520    -0.82790
O830        O  0.43130447  0.40007525  0.78668660    -2.17500
O831        O  0.38340178  0.50490147  0.74745994    -0.66180
O832        O  0.36526987  0.47162625  0.77319760    -0.50750
C833        C  0.36810230  0.49857902  0.76414225     0.72590
O834        O  0.41584941  0.41277574  0.66400551    -0.59090
O835        O  0.46514096  0.42546617  0.67493164    -0.51070
C836        C  0.44010719  0.42004439  0.65787138     0.74390
O837        O  0.34039263  0.39838775  0.70074293    -0.70480
O838        O  0.33382865  0.40822332  0.74261176    -0.49160
C839        C  0.32412554  0.40119734  0.71763817     0.75780
O840        O  0.45318387  0.00455683  0.70382836    -0.65810
O841        O  0.49211200  0.47510806  0.70950373    -0.53010
C842        C  0.47843732  0.99789428  0.69950794     0.74160
Zr843      Zr  0.41870668  0.48129954  0.73006966     2.77540
O844        O  0.38476051  0.49324234  0.68861680    -0.96560
O845        O  0.43168408  0.03189779  0.74451354    -0.77380
Zr846      Zr  0.39244941  0.40236306  0.69875322     2.70070
O847        O  0.35772839  0.41037470  0.65663618    -0.78630
O848        O  0.38639847  0.35062521  0.68422330    -0.97710
Zr849      Zr  0.47523366  0.42923673  0.72413194     2.21500
Zr850      Zr  0.38379076  0.41827480  0.76808591     2.11130
O851        O  0.38241770  0.44091461  0.72614442    -2.46400
O852        O  0.42736046  0.44326666  0.70280805    -0.78420
O853        O  0.41761718  0.46047985  0.77246526    -0.70620
O854        O  0.44132347  0.38679083  0.71485987    -2.31580
O855        O  0.46445980  0.46617882  0.75345259    -2.27780
O856        O  0.39714196  0.38157544  0.73988262    -0.72380
H857        H  0.43120919  0.38982787  0.80282141     0.79620
H858        H  0.44654601  0.37328904  0.70215567     0.80710
H859        H  0.36322056  0.44822585  0.71893113     0.82930
H860        H  0.47832085  0.48303879  0.75555836     0.80540
H861        H  0.43484883  0.32166803  0.71466247     0.43570
H862        H  0.37291839  0.34166927  0.69451887     0.42540
H863        H  0.35633876  0.43199228  0.65633985     0.42220
H864        H  0.36516455  0.49370268  0.69297120     0.40160
H865        H  0.43190351  0.03220123  0.76379018     0.43290
H866        H  0.47583430  0.50192681  0.81576129     0.38070
H867        H  0.99986149  0.42636517  0.84424632     0.44190
H868        H  0.45474161  0.33998600  0.80770033     0.40600
H869        H  0.38915176  0.01304914  0.68484454     0.45520
H870        H  0.46840538  0.48409590  0.83893751     0.44250
H871        H  0.48102257  0.33100615  0.79556067     0.44380
H872        H  0.37437892  0.35039911  0.66563138     0.44740
O873        O  0.24198980  0.21736723  0.57910449    -0.74130
O874        O  0.24245353  0.17532252  0.60057478    -0.53040
C875        C  0.23028909  0.19867451  0.59333760     0.79600
O876        O  0.28724901  0.16927030  0.96468148    -0.58730
O877        O  0.33512257  0.18523558  0.98097489    -0.51760
C878        C  0.31317061  0.17671167  0.96181364     0.71610
O879        O  0.21113426  0.15330777  0.00013047    -0.73290
O880        O  0.20815898  0.16605333  0.54096333    -0.53850
C881        C  0.19901974  0.16754548  0.51519252     0.77610
O882        O  0.33055501  0.25291256  0.55218015    -0.58430
O883        O  0.35935977  0.22656156  0.53069092    -0.51550
C884        C  0.35204818  0.25066463  0.54028571     0.74210
Zr885      Zr  0.29222500  0.22051380  0.56503325     2.54710
O886        O  0.27054502  0.26619644  0.54984510    -0.79000
O887        O  0.31015821  0.24592846  0.60846817    -0.92420
Zr888      Zr  0.25935468  0.17175433  0.49786407     2.64680
O889        O  0.24298064  0.21949500  0.98157148    -0.97370
O890        O  0.22831462  0.15643348  0.95462091    -0.79430
O891        O  0.25397197  0.18834802  0.54071679    -0.82790
O892        O  0.29789324  0.20477123  0.52150752    -2.17500
O893        O  0.38817648  0.14296607  0.58573482    -0.66180
O894        O  0.39043509  0.17061227  0.55054597    -0.50750
C895        C  0.39825403  0.14873488  0.56495963     0.72590
O896        O  0.25024309  0.07419947  0.53156991    -0.59090
O897        O  0.23866899  0.09652521  0.56727218    -0.51070
C898        C  0.23224678  0.07926072  0.54669234     0.74390
O899        O  0.34793458  0.09315443  0.52027772    -0.70480
O900        O  0.36302641  0.13750005  0.50750436    -0.49160
C901        C  0.36847865  0.11237781  0.51743210     0.75780
O902        O  0.31526517  0.13943937  0.62981478    -0.65810
O903        O  0.26498681  0.13643608  0.61541350    -0.53010
C904        C  0.28919102  0.13645071  0.63380783     0.74160
Zr905      Zr  0.33928487  0.15261286  0.59526415     2.77540
O906        O  0.36349111  0.11739521  0.62658726    -0.96560
O907        O  0.36747241  0.19213026  0.62463851    -0.77380
Zr908      Zr  0.29801335  0.10040912  0.52894850     2.70070
O909        O  0.31123483  0.05396477  0.54939287    -0.78630
O910        O  0.28492840  0.07789821  0.48401099    -0.97710
Zr911      Zr  0.25564353  0.14644510  0.56763676     2.21500
Zr912      Zr  0.34009978  0.17591210  0.52717022     2.11130
O913        O  0.33558108  0.13381332  0.55271189    -2.46400
O914        O  0.29855758  0.11884315  0.57320348    -0.78420
O915        O  0.33771451  0.19546926  0.57013004    -0.70620
O916        O  0.25687732  0.12953328  0.52347176    -2.31580
O917        O  0.29597626  0.17883215  0.59104885    -2.27780
O918        O  0.30079833  0.14290328  0.50314271    -0.72380
H919        H  0.30045611  0.22140291  0.51089207     0.79620
H920        H  0.23978239  0.11761271  0.51418742     0.80710
H921        H  0.35076982  0.12041898  0.55706695     0.82930
H922        H  0.29457670  0.18554983  0.60861372     0.80540
H923        H  0.23071768  0.13502781  0.95308342     0.43570
H924        H  0.29885868  0.08868715  0.97409100     0.42540
H925        H  0.32669410  0.05965964  0.56573375     0.42220
H926        H  0.36773921  0.10107200  0.61521709     0.40160
H927        H  0.38651771  0.19426869  0.61923178     0.43290
H928        H  0.29262738  0.24601611  0.61627154     0.38070
H929        H  0.27246313  0.26711875  0.53113254     0.44190
H930        H  0.26094123  0.23164426  0.98069488     0.40600
H931        H  0.38311272  0.12704419  0.63508905     0.45520
H932        H  0.31374769  0.26669939  0.60427480     0.44250
H933        H  0.23318527  0.21512608  0.96255500     0.44380
H934        H  0.29178076  0.05770819  0.48625266     0.44740
O935        O  0.28304658  0.24993984  0.83709333    -0.74130
O936        O  0.24963887  0.21396891  0.84301325    -0.53040
C937        C  0.26078062  0.24037107  0.84621579     0.79600
O938        O  0.28693697  0.15477124  0.71407895    -0.58730
O939        O  0.33726542  0.15946302  0.72536862    -0.51760
C940        C  0.31230379  0.15308233  0.70869730     0.71610
O941        O  0.21958415  0.18571507  0.75365624    -0.73290
O942        O  0.21471232  0.18657750  0.79664143    -0.53850
C943        C  0.20470434  0.18948357  0.77133244     0.77610
O944        O  0.34624673  0.25481981  0.78906711    -0.58430
O945        O  0.36819620  0.22082245  0.76757647    -0.51550
C946        C  0.36354089  0.24849564  0.77446696     0.74210
Zr947      Zr  0.31410076  0.22836579  0.80890015     2.54710
O948        O  0.29033874  0.27020243  0.78665473    -0.79000
O949        O  0.35030416  0.25617603  0.84395091    -0.92420
Zr950      Zr  0.26802481  0.17512854  0.75002212     2.64680
O951        O  0.26372926  0.21508014  0.71976527    -0.97370
O952        O  0.22896360  0.14895624  0.71660326    -0.79430
O953        O  0.26850146  0.20415782  0.78935564    -0.82790
O954        O  0.31295438  0.20194341  0.76717202    -2.17500
O955        O  0.39837909  0.15830652  0.83651042    -0.66180
O956        O  0.40104402  0.16188697  0.79300522    -0.50750
C957        C  0.41313668  0.15915556  0.81776670     0.72590
O958        O  0.23943108  0.09472065  0.80017651    -0.59090
O959        O  0.22531034  0.13359713  0.82199127    -0.51070
C960        C  0.22026818  0.10827657  0.81016225     0.74390
O961        O  0.32524587  0.07707554  0.77960672    -0.70480
O962        O  0.35869997  0.10938918  0.76682304    -0.49160
C963        C  0.34832237  0.08235959  0.77076090     0.75780
O964        O  0.32450361  0.16082294  0.88350597    -0.65810
O965        O  0.27405773  0.16201499  0.86942338    -0.53010
C966        C  0.29826482  0.16127548  0.88746442     0.74160
Zr967      Zr  0.34735524  0.15965563  0.84599656     2.77540
O968        O  0.36440039  0.11482469  0.86775860    -0.96560
O969        O  0.38047986  0.18952775  0.88165546    -0.77380
Zr970      Zr  0.29031753  0.10695007  0.79274551     2.70070
O971        O  0.29785833  0.06769214  0.82431424    -0.78630
O972        O  0.26491839  0.07666442  0.75353353    -0.97710
Zr973      Zr  0.26254944  0.17099359  0.82227719     2.21500
Zr974      Zr  0.34911048  0.16548295  0.77371788     2.11130
O975        O  0.33922561  0.13180796  0.80639455    -2.46400
O976        O  0.29852299  0.13496512  0.83297033    -0.78420
O977        O  0.35264473  0.19430368  0.81423876    -0.70620
O978        O  0.25672509  0.14340789  0.78156677    -2.31580
O979        O  0.31004846  0.19468028  0.84073831    -2.27780
O980        O  0.30197963  0.13862565  0.75972587    -0.72380
H981        H  0.31535416  0.21526233  0.75348629     0.79620
H982        H  0.23673978  0.13591472  0.77378071     0.80710
H983        H  0.35415878  0.11773328  0.81088661     0.82930
H984        H  0.31084738  0.20527429  0.85739973     0.80540
H985        H  0.23318621  0.12800593  0.71911195     0.43570
H986        H  0.27590655  0.08119830  0.73967166     0.42540
H987        H  0.31837000  0.07172296  0.83500612     0.42220
H988        H  0.37969870  0.10827830  0.85875030     0.40160
H989        H  0.38648258  0.20699409  0.87269005     0.43290
H990        H  0.34614225  0.24944115  0.86089308     0.38070
H991        H  0.28076982  0.26247690  0.76836196     0.44190
H992        H  0.27969399  0.21285606  0.71021037     0.40600
H993        H  0.37559232  0.12164418  0.88587994     0.45520
H994        H  0.34396446  0.27660497  0.84269630     0.44250
H995        H  0.24533718  0.20933591  0.70616809     0.44380
H996        H  0.26936049  0.05619151  0.75824778     0.44740
O997        O  0.07174844  0.50271830  0.58163293    -0.74130
O998        O  0.05421254  0.49290577  0.61711791    -0.53040
C999        C  0.05674790  0.48570927  0.59328172     0.79600
O1000       O  0.16440885  0.06752521  0.57343733    -0.58730
O1001       O  0.14386299  0.11012300  0.55809308    -0.51760
C1002       C  0.16151174  0.08898379  0.55771798     0.71610
O1003       O  0.15185210  0.00762964  0.63601400    -0.73290
O1004       O  0.11275982  0.50057165  0.65800090    -0.53850
C1005       C  0.13601730  0.49274693  0.65118837     0.77610
O1006       O  0.06426177  0.06827268  0.52908675    -0.58430
O1007       O  0.08449540  0.11524672  0.53459296    -0.51550
C1008       C  0.07350178  0.09192717  0.52019058     0.74210
Zr1009     Zr  0.05818146  0.04958037  0.57049368     2.54710
O1010       O  0.04004930  0.01633690  0.53158621    -0.79000
O1011       O  0.00421866  0.04939451  0.55991370    -0.92420
Zr1012     Zr  0.14382463  0.05116384  0.60924906     2.64680
O1013       O  0.15599592  0.00850310  0.58524973    -0.97370
O1014       O  0.19477828  0.06424860  0.63282915    -0.79430
O1015       O  0.09574949  0.03099324  0.60423399    -0.82790
O1016       O  0.10650069  0.06961092  0.57431247    -2.17500
O1017       O  0.04416804  0.15782283  0.61026069    -0.66180
O1018       O  0.07806587  0.16620105  0.58472666    -0.50750
C1019       C  0.05944133  0.17477110  0.59825022     0.72590
O1020       O  0.11411252  0.10148043  0.69799557    -0.59090
O1021       O  0.08784144  0.05679914  0.69161593    -0.51070
C1022       C  0.09834715  0.08070682  0.70557071     0.74390
O1023       O  0.16289881  0.14937800  0.63877643    -0.70480
O1024       O  0.14449212  0.15980889  0.59516069    -0.49160
C1025       C  0.16431792  0.16331481  0.61721536     0.75780
O1026       O  0.51408633  0.08055793  0.64945253    -0.65810
O1027       O  0.03988896  0.03463216  0.66240505    -0.53010
C1028       C  0.01891614  0.05161769  0.66278990     0.74160
Zr1029     Zr  0.04316882  0.10663039  0.62198410     2.77540
O1030       O  0.02673083  0.13558601  0.65566927    -0.96560
O1031       O  0.49509848  0.10885832  0.58904778    -0.77380
Zr1032     Zr  0.13112066  0.11283708  0.65759011     2.70070
O1033       O  0.13055504  0.16010634  0.68054906    -0.78630
O1034       O  0.17742482  0.10169879  0.68762188    -0.97710
Zr1035     Zr  0.08294238  0.03873235  0.64523680     2.21500
Zr1036     Zr  0.10511565  0.12101445  0.58267554     2.11130
O1037       O  0.09242248  0.12904090  0.62488472    -2.46400
O1038       O  0.08292004  0.08997423  0.65347674    -0.78420
O1039       O  0.05568600  0.10041845  0.57950958    -0.70620
O1040       O  0.13204802  0.06114851  0.65066130    -2.31580
O1041       O  0.04389743  0.05591066  0.61131878    -2.27780
O1042       O  0.14332609  0.10253389  0.61663210    -0.72380
H1043       H  0.11129713  0.06459728  0.55761600     0.79620
H1044       H  0.14602658  0.05358472  0.66547449     0.80710
H1045       H  0.09437204  0.14946772  0.63065358     0.82930
H1046       H  0.02526206  0.04531604  0.61083213     0.80540
H1047       H  0.19714523  0.05462672  0.65014475     0.43570
H1048       H  0.19284115  0.11045966  0.67930080     0.42540
H1049       H  0.10974895  0.16160734  0.68171493     0.42220
H1050       H  0.04367078  0.14969291  0.66343861     0.40160
H1051       H  0.48224870  0.09419592  0.59558378     0.43290
H1052       H  0.49640962  0.02898991  0.55382294     0.38070
H1053       H  0.05442069  0.51306670  0.52443001     0.44190
H1054       H  0.14524354  0.01040725  0.56643878     0.40600
H1055       H  0.51135518  0.15098326  0.64460733     0.45520
H1056       H  0.99758869  0.04514182  0.54042508     0.44250
H1057       H  0.17715696  0.01206826  0.58522444     0.44380
H1058       H  0.17842597  0.11433538  0.70378555     0.44740
O1059       O  0.03346673  0.48977413  0.82044861    -0.74130
O1060       O  0.06283568  0.48398686  0.86086009    -0.53040
C1061       C  0.05388475  0.47647692  0.83570529     0.79600
O1062       O  0.14357583  0.07894381  0.82875444    -0.58730
O1063       O  0.11633344  0.11746037  0.81199958    -0.51760
C1064       C  0.13988145  0.10224144  0.81555129     0.71610
O1065       O  0.13117043  0.51253407  0.88350023    -0.73290
O1066       O  0.09635580  0.50115801  0.90711349    -0.53850
C1067       C  0.12055860  0.49734158  0.90016836     0.77610
O1068       O  0.04788269  0.05314501  0.77048613    -0.58430
O1069       O  0.06280962  0.10178868  0.77573101    -0.51550
C1070       C  0.05738038  0.07720244  0.76204804     0.74210
Zr1071     Zr  0.03692987  0.03508702  0.81156462     2.54710
O1072       O  0.03979427  0.99938016  0.77654674    -0.79000
O1073       O  0.98704620  0.04136317  0.78578883    -0.92420
Zr1074     Zr  0.11916879  0.05345954  0.85755709     2.64680
O1075       O  0.13840113  0.01586603  0.83282000    -0.97370
O1076       O  0.16724160  0.07080050  0.88526520    -0.79430
O1077       O  0.07482082  0.02562629  0.84931667    -0.82790
O1078       O  0.08195311  0.06349918  0.81905021    -2.17500
O1079       O  0.99807632  0.13330543  0.84555576    -0.66180
O1080       O  0.01570149  0.13468043  0.80839877    -0.50750
C1081       C  0.99532370  0.14009233  0.82151129     0.72590
O1082       O  0.07757772  0.09278756  0.93984058    -0.59090
O1083       O  0.06486984  0.04346161  0.93611530    -0.51070
C1084       C  0.07058804  0.06845890  0.94931436     0.74390
O1085       O  0.09424490  0.15755461  0.88187603    -0.70480
O1086       O  0.08213034  0.16084967  0.83638364    -0.49160
C1087       C  0.09030832  0.17168393  0.86012539     0.75780
O1088       O  0.48430550  0.05672401  0.89056536    -0.65810
O1089       O  0.01248123  0.01496761  0.90250358    -0.53010
C1090       C  0.49010607  0.03331567  0.90388165     0.74160
Zr1091     Zr  0.00627338  0.08516369  0.86059577     2.77540
O1092       O  0.98353230  0.11181374  0.89149656    -0.96560
O1093       O  0.45870833  0.07737032  0.83169014    -0.77380
Zr1094     Zr  0.08889098  0.10919832  0.89944421     2.70070
O1095       O  0.08638856  0.14906866  0.93113981    -0.78630
O1096       O  0.14131751  0.11127342  0.92149732    -0.97710
Zr1097     Zr  0.05762532  0.02854391  0.88877530     2.21500
Zr1098     Zr  0.06628549  0.11190807  0.82306063     2.11130
O1099       O  0.04940416  0.11767987  0.86359040    -2.46400
O1100       O  0.04598179  0.07744146  0.89615429    -0.78420
O1101       O  0.02184513  0.08195200  0.81929690    -0.70620
O1102       O  0.10170910  0.06033236  0.89636386    -2.31580
O1103       O  0.01812401  0.03684991  0.85128470    -2.27780
O1104       O  0.10617709  0.10287962  0.86059911    -0.72380
H1105       H  0.09142591  0.06095290  0.80445874     0.79620
H1106       H  0.11614722  0.05605106  0.91233484     0.80710
H1107       H  0.04524126  0.13777179  0.86674822     0.82930
H1108       H  0.50224192  0.02619536  0.85130291     0.80540
H1109       H  0.16941448  0.05967689  0.90179036     0.43570
H1110       H  0.14906270  0.13087370  0.91746675     0.42540
H1111       H  0.06545345  0.15419382  0.92644163     0.42220
H1112       H  0.99513269  0.13091930  0.89562078     0.40160
H1113       H  0.46006509  0.08617053  0.81462777     0.43290
H1114       H  0.49263028  0.03396660  0.76446699     0.38070
H1115       H  0.06177130  0.50435605  0.77444084     0.44190
H1116       H  0.12917373  0.01887870  0.81380688     0.40600
H1117       H  0.46633970  0.11951697  0.88301381     0.45520
H1118       H  0.98714239  0.06149117  0.77900447     0.44250
H1119       H  0.15955379  0.02206651  0.83493075     0.44380
H1120       H  0.14178959  0.11277838  0.94080782     0.44740
C1121       C  0.09022951  0.08594321  0.73137326    -0.15270
C1122       C  0.06440847  0.07488888  0.73565255    -0.30450
H1123       H  0.10495356  0.10020180  0.74660717     0.13750
H1124       H  0.05002316  0.06035368  0.72054686     0.14330
C1125       C  0.06870581  0.06980228  0.97728538    -0.15270
C1126       C  0.07294734  0.09101397  0.49165638    -0.30450
H1127       H  0.06388649  0.04916771  0.98596411     0.13750
H1128       H  0.07746636  0.11170117  0.48292304     0.14330
C1129       C  0.44598940  0.15599655  0.82596712    -0.15270
C1130       C  0.46575808  0.15264070  0.80995193    -0.30450
H1131       H  0.45392758  0.15438062  0.84738504     0.13750
H1132       H  0.45861093  0.15433335  0.78846648     0.14330
C1133       C  0.16644254  0.11250537  0.80618626    -0.15270
C1134       C  0.18992394  0.09514996  0.80776365    -0.30450
H1135       H  0.16879404  0.13568659  0.80212237     0.13750
H1136       H  0.18740459  0.07161293  0.81022806     0.14330
C1137       C  0.29558234  0.16235351  0.91489900    -0.15270
C1138       C  0.31760874  0.17405025  0.93477180    -0.30450
H1139       H  0.27413031  0.15549232  0.91841417     0.13750
H1140       H  0.33876712  0.18168347  0.93107693     0.14330
C1141       C  0.31273423  0.14382557  0.68134519    -0.15270
C1142       C  0.28783860  0.13663137  0.66210082    -0.30450
H1143       H  0.33426556  0.14536334  0.67651896     0.13750
H1144       H  0.26626770  0.13530537  0.66685000     0.14330
C1145       C  0.41353752  0.12540789  0.55366633    -0.15270
C1146       C  0.39956317  0.10826109  0.53171835    -0.30450
H1147       H  0.43508770  0.11969155  0.56494098     0.13750
H1148       H  0.41034285  0.08932915  0.52612380     0.14330
C1149       C  0.18128090  0.08948465  0.53903953    -0.15270
C1150       C  0.20109753  0.06847130  0.53943347    -0.30450
H1151       H  0.18592116  0.11091028  0.53174461     0.13750
H1152       H  0.19645760  0.04655715  0.54583956     0.14330
C1153       C  0.06362357  0.44522049  0.79740246    -0.15270
C1154       C  0.07194163  0.45675013  0.82287350    -0.30450
H1155       H  0.08014418  0.43599472  0.78830726     0.13750
H1156       H  0.09500380  0.45555793  0.83291410     0.14330
C1157       C  0.49515270  0.01573721  0.68352591    -0.15270
C1158       C  0.49315423  0.04373221  0.67506016    -0.30450
H1159       H  0.51241230  0.00308524  0.67854918     0.13750
H1160       H  0.97445273  0.04760812  0.67346243     0.14330
C1161       C  0.36794041  0.30511769  0.77163007    -0.15270
C1162       C  0.37769588  0.27710617  0.76647861    -0.30450
H1163       H  0.34825068  0.30641738  0.77937553     0.13750
H1164       H  0.39675177  0.27553432  0.75786162     0.14330
C1165       C  0.35535637  0.02584796  0.77225502    -0.15270
C1166       C  0.36306192  0.05437546  0.76522949    -0.30450
H1167       H  0.33706997  0.52281413  0.78367916     0.13750
H1168       H  0.38037484  0.05731032  0.75444970     0.14330
C1169       C  0.43587697  0.42757718  0.88499045    -0.15270
C1170       C  0.41214665  0.42437009  0.86381750    -0.30450
H1171       H  0.45772426  0.43348762  0.88190687     0.13750
H1172       H  0.39031234  0.41857366  0.86697707     0.14330
C1173       C  0.41007177  0.41527540  0.61258369    -0.15270
C1174       C  0.43648783  0.42410472  0.62916037    -0.30450
H1175       H  0.39374798  0.40155142  0.61947614     0.13750
H1176       H  0.45349045  0.43648118  0.62209123     0.14330
C1177       C  0.04327229  0.45565188  0.55122726    -0.15270
C1178       C  0.04048226  0.46000917  0.57680809    -0.30850
H1179       H  0.06236615  0.46548835  0.54523625     0.13750
H1180       H  0.02248877  0.44880035  0.58330943     0.14330
C1181       C  0.46873158  0.02218109  0.91922498    -0.15270
C1182       C  0.47760526  0.01948845  0.94580541    -0.30450
H1183       H  0.44706790  0.01312958  0.90839899     0.13750
H1184       H  0.45998432  0.54378940  0.93900195     0.14330
C1185       C  0.36215440  0.30486659  0.54094080    -0.15270
C1186       C  0.36969638  0.27747850  0.53636209    -0.30450
H1187       H  0.34284983  0.30797626  0.54895562     0.13750
H1188       H  0.38851663  0.27447055  0.52762884     0.14330
C1189       C  0.30181391  0.44965219  0.98556400    -0.15270
C1190       C  0.29603245  0.42389769  0.97054138    -0.30450
H1191       H  0.28534881  0.46599922  0.98234496     0.13750
H1192       H  0.27519683  0.42048628  0.95578054     0.14330
C1193       C  0.17868115  0.19789206  0.97699687    -0.15270
C1194       C  0.18151175  0.19218699  0.00344906    -0.30450
H1195       H  0.18283159  0.18095836  0.96335459     0.13750
H1196       H  0.17668833  0.20886563  0.01703358     0.14330
C1197       C  0.25627776  0.27343560  0.88436227    -0.15270
C1198       C  0.24484212  0.26015880  0.86023732    -0.30450
H1199       H  0.27999964  0.27518182  0.89272842     0.13750
H1200       H  0.22091871  0.25874333  0.85285448     0.14330
C1201       C  0.22355481  0.40657874  0.01082026    -0.15270
C1202       C  0.20946760  0.39193325  0.02757548    -0.30450
H1203       H  0.24399113  0.41958061  0.01925808     0.13750
H1204       H  0.21898298  0.39368089  0.04893710     0.14330
C1205       C  0.03198671  0.35382154  0.98374836    -0.15270
C1206       C  0.05462623  0.37170803  0.97974108    -0.30450
H1207       H  0.03245821  0.33003696  0.98199780     0.13750
H1208       H  0.05455003  0.39538840  0.98299032     0.14330
C1209       C  0.08294023  0.21587242  0.88196740    -0.15270
C1210       C  0.09380699  0.20287296  0.86311105    -0.30450
H1211       H  0.06745234  0.20404567  0.89145060     0.13750
H1212       H  0.10802853  0.21450696  0.85224741     0.14330
C1213       C  0.12165505  0.44650488  0.89442691    -0.15270
C1214       C  0.13406681  0.47060608  0.90865625    -0.30450
H1215       H  0.10506839  0.44795317  0.87601279     0.13750
H1216       H  0.15071234  0.46995245  0.92728621     0.14330
C1217       C  0.13878786  0.29206578  0.79511236    -0.15270
C1218       C  0.15526862  0.27901620  0.81639054    -0.30450
H1219       H  0.12063717  0.30488456  0.79791301     0.13750
H1220       H  0.17262118  0.26503007  0.81371617     0.14330
C1221       C  0.20170053  0.31499263  0.58639757    -0.15270
C1222       C  0.22490357  0.30333719  0.60300795    -0.30450
H1223       H  0.20009037  0.31498869  0.56506550     0.13750
H1224       H  0.24227959  0.29392489  0.59521922     0.14330
C1225       C  0.17507716  0.20024963  0.76075527    -0.15270
C1226       C  0.16345469  0.19644071  0.73422453    -0.30450
H1227       H  0.16874907  0.21848960  0.77183482     0.13750
H1228       H  0.17036638  0.17793300  0.72388168     0.14330
C1229       C  0.19943915  0.19881121  0.59818374    -0.15270
C1230       C  0.19273147  0.18117377  0.61754719    -0.30450
H1231       H  0.18186527  0.20652573  0.58259924     0.13750
H1232       H  0.21117611  0.17519942  0.63330957     0.14330
C1233       C  0.27303632  0.39329300  0.72295300    -0.15270
C1234       C  0.29220230  0.39499860  0.70711661    -0.30450
H1235       H  0.28060095  0.39838607  0.74427035     0.13750
H1236       H  0.28480597  0.38862295  0.68601296     0.14330
C1237       C  0.03968212  0.35483660  0.73313304    -0.15270
C1238       C  0.04053417  0.32901902  0.72047450    -0.30450
H1239       H  0.05920013  0.37003934  0.73740591     0.13750
H1240       H  0.02139166  0.31342999  0.71555488     0.14330
C1241       C  0.06025999  0.20650237  0.60513964    -0.15270
C1242       C  0.06086431  0.21560217  0.63072647    -0.30450
H1243       H  0.06847964  0.22134591  0.59199440     0.13750
H1244       H  0.05438798  0.20016250  0.64434966     0.14330
C1245       C  0.14757847  0.46591085  0.66297767    -0.15270
C1246       C  0.16293740  0.44793659  0.65118221    -0.30450
H1247       H  0.13871571  0.45828989  0.67955754     0.13750
H1248       H  0.17223194  0.45505199  0.63473037     0.14330
O1249       O  0.14224403  0.90759698  0.16807667    -0.74130
O1250       O  0.18319273  0.90132229  0.15186828    -0.53040
C1251       C  0.16353691  0.91714191  0.15782437     0.79600
O1252       O  0.16895910  0.80874641  0.26665599    -0.58730
O1253       O  0.12554341  0.78256029  0.24726306    -0.51760
C1254       C  0.14542522  0.79294416  0.26780247     0.71610
O1255       O  0.23231377  0.86577032  0.23096067    -0.73290
O1256       O  0.23412053  0.87547985  0.18798746    -0.53850
C1257       C  0.24483726  0.87716587  0.21339711     0.77610
O1258       O  0.07854157  0.84769432  0.20092863    -0.58430
O1259       O  0.07457942  0.79834496  0.20711597    -0.51550
C1260       C  0.06585577  0.82445103  0.20811971     0.74210
Zr1261     Zr  0.11952225  0.86302790  0.18140447     2.54710
O1262       O  0.11538031  0.90191070  0.21346438    -0.79000
O1263       O  0.07749878  0.88170544  0.15011975    -0.92420
Zr1264     Zr  0.18878285  0.83311323  0.23179404     2.64680
O1265       O  0.18638217  0.87391931  0.26259025    -0.97370
O1266       O  0.23019003  0.81231273  0.26214429    -0.79430
O1267       O  0.17168558  0.86556106  0.19704930    -0.82790
O1268       O  0.13645758  0.83120168  0.21637658    -2.17500
O1269       O  0.08765987  0.76037451  0.12556173    -0.66180
O1270       O  0.08471811  0.74783471  0.16744841    -0.50750
C1271       C  0.07787219  0.74387610  0.14167321     0.72590
O1272       O  0.21316254  0.77883286  0.13947367    -0.59090
O1273       O  0.23030613  0.82640111  0.14595138    -0.51070
C1274       C  0.22586787  0.80202545  0.13217897     0.74390
O1275       O  0.17862768  0.73158643  0.20666155    -0.70480
O1276       O  0.13373782  0.73583875  0.21669460    -0.49160
C1277       C  0.15775292  0.72299207  0.21795769     0.75780
O1278       O  0.15837819  0.80574492  0.09967960    -0.65810
O1279       O  0.18309315  0.84977011  0.11176060    -0.53010
C1280       C  0.17850222  0.82554508  0.09780891     0.74160
Zr1281     Zr  0.12207868  0.80193978  0.12743685     2.77540
O1282       O  0.10147450  0.77858976  0.08336742    -0.96560
O1283       O  0.08622355  0.83561778  0.10508914    -0.77380
Zr1284     Zr  0.19249514  0.77053378  0.17872258     2.70070
O1285       O  0.20019394  0.72158965  0.16350008    -0.78630
O1286       O  0.24448580  0.77271182  0.20178377    -0.97710
Zr1287     Zr  0.19064297  0.85029858  0.15996210     2.21500
Zr1288     Zr  0.12010940  0.78241270  0.19865503     2.11130
O1289       O  0.14018315  0.76792891  0.16180887    -2.46400
O1290       O  0.17322217  0.80190008  0.14434235    -0.78420
O1291       O  0.10159733  0.81499469  0.16390387    -0.70620
O1292       O  0.20907289  0.81882057  0.19552063    -2.31580
O1293       O  0.13817314  0.85055076  0.14371177    -2.27780
O1294       O  0.17258763  0.78468622  0.21489462    -0.72380
H1295       H  0.12792233  0.83624204  0.23117300     0.79620
H1296       H  0.23035625  0.82101003  0.20034046     0.80710
H1297       H  0.13487770  0.74765929  0.15591478     0.82930
H1298       H  0.13317174  0.86449416  0.12980762     0.80540
H1299       H  0.24528787  0.81025205  0.25159480     0.43570
H1300       H  0.24477033  0.76375616  0.21910502     0.42540
H1301       H  0.18038280  0.71126361  0.16059636     0.42220
H1302       H  0.11549961  0.76364598  0.08112888     0.40160
H1303       H  0.06726155  0.82832195  0.10888105     0.43290
H1304       H  0.08610156  0.89148034  0.13648784     0.38070
H1305       H  0.13559653  0.90516550  0.22497028     0.44190
H1306       H  0.16614036  0.87181073  0.26559709     0.40600
H1307       H  0.10375370  0.79376674  0.07046365     0.45520
H1308       H  0.07127715  0.89807084  0.16018997     0.44250
H1309       H  0.19941511  0.86879452  0.27974445     0.44380
H1310       H  0.25370016  0.75897239  0.19141931     0.44740
O1311       O  0.07244541  0.83875335  0.45431943    -0.74130
O1312       O  0.09971255  0.88235158  0.46404931    -0.53040
C1313       C  0.07668643  0.86521977  0.46398094     0.79600
O1314       O  0.17367672  0.74857181  0.48298685    -0.58730
O1315       O  0.17131020  0.73172916  0.44016730    -0.51760
C1316       C  0.17338651  0.72784426  0.46557199     0.71610
O1317       O  0.18756017  0.84032918  0.01863222    -0.73290
O1318       O  0.15971217  0.88076722  0.50162989    -0.53850
C1319       C  0.18422047  0.86837695  0.01761242     0.77610
O1320       O  0.08480711  0.75833808  0.41163261    -0.58430
O1321       O  0.11710642  0.76007135  0.38564453    -0.51550
C1322       C  0.09691413  0.74673911  0.39452928     0.74210
Zr1323     Zr  0.09629046  0.80781702  0.42840531     2.54710
O1324       O  0.06215189  0.77970636  0.44897106    -0.79000
O1325       O  0.05497219  0.81774029  0.39165518    -0.92420
Zr1326     Zr  0.16999952  0.80114824  0.48395492     2.64680
O1327       O  0.13617134  0.78944287  0.51232985    -0.97370
O1328       O  0.21267781  0.78727569  0.51727234    -0.79430
O1329       O  0.12832867  0.82883877  0.46796120    -0.82790
O1330       O  0.13747205  0.77922267  0.44510512    -2.17500
O1331       O  0.14525190  0.81281802  0.34664016    -0.66180
O1332       O  0.16355015  0.76976513  0.36315824    -0.50750
C1333       C  0.15473909  0.78718990  0.34373112     0.72590
O1334       O  0.23087550  0.88460479  0.47123229    -0.59090
O1335       O  0.18898100  0.90808745  0.47061689    -0.51070
C1336       C  0.21477021  0.90083609  0.48249849     0.74390
O1337       O  0.24209908  0.80916468  0.41277472    -0.70480
O1338       O  0.21219350  0.76724920  0.39992437    -0.49160
C1339       C  0.23603329  0.78347399  0.40092741     0.75780
O1340       O  0.13900889  0.90044063  0.38421769    -0.65810
O1341       O  0.13944263  0.91562001  0.42691292    -0.53010
C1342       C  0.13914157  0.92018626  0.40236273     0.74160
Zr1343     Zr  0.14090003  0.84796749  0.38188504     2.77540
O1344       O  0.16250807  0.87294864  0.34904848    -0.96560
O1345       O  0.09183258  0.84939271  0.35241919    -0.77380
Zr1346     Zr  0.21678988  0.84373945  0.43629369     2.70070
O1347       O  0.23397157  0.88048211  0.40899412    -0.78630
O1348       O  0.26633991  0.83844835  0.46367339    -0.97710
Zr1349     Zr  0.14744473  0.87346498  0.45386153     2.21500
Zr1350     Zr  0.16555797  0.77570252  0.41153309     2.11130
O1351       O  0.18334354  0.82166623  0.39846011    -2.46400
O1352       O  0.17456832  0.87088544  0.41984117    -0.78420
O1353       O  0.12328461  0.80287892  0.39483665    -0.70620
O1354       O  0.18787254  0.84310087  0.46745708    -2.31580
O1355       O  0.11301607  0.85367096  0.41489383    -2.27780
O1356       O  0.19879423  0.79774444  0.45048766    -0.72380
H1357       H  0.12937886  0.76035613  0.44897381     0.79620
H1358       H  0.20330020  0.84851390  0.48266200     0.80710
H1359       H  0.19328370  0.81949716  0.38410924     0.82930
H1360       H  0.09693784  0.86635831  0.40917231     0.80540
H1361       H  0.22943277  0.79861253  0.01408855     0.43570
H1362       H  0.26765944  0.81702255  0.46607103     0.42540
H1363       H  0.22780350  0.87186270  0.39054861     0.42220
H1364       H  0.17995504  0.86189885  0.34791006     0.40160
H1365       H  0.08568353  0.82852593  0.34710502     0.43290
H1366       H  0.04480522  0.83353592  0.39880965     0.38070
H1367       H  0.07442533  0.77442988  0.46643109     0.44190
H1368       H  0.12616940  0.77026762  0.50495226     0.40600
H1369       H  0.14820273  0.86860925  0.33170500     0.45520
H1370       H  0.04117791  0.80011204  0.38999587     0.44250
H1371       H  0.14988808  0.78079665  0.02924444     0.44380
H1372       H  0.27979869  0.84340415  0.45189769     0.44740
O1373       O  0.99371183  0.93970464  0.03439556    -0.74130
O1374       O  0.01840496  0.94146643  0.00496294    -0.53040
C1375       C  0.01862452  0.94403030  0.02963415     0.79600
O1376       O  0.40087386  0.82846176  0.02558425    -0.58730
O1377       O  0.36371014  0.85627939  0.03253596    -0.51760
C1378       C  0.37613850  0.83175827  0.03240128     0.71610
O1379       O  0.98623320  0.85566987  0.49598920    -0.73290
O1380       O  0.99968412  0.89792179  0.47783583    -0.53850
C1381       C  0.00378900  0.87160210  0.48515686     0.77610
O1382       O  0.41682095  0.94401989  0.07801863    -0.58430
O1383       O  0.38185705  0.90727390  0.06845443    -0.51550
C1384       C  0.40147983  0.92326573  0.08525209     0.74210
Zr1385     Zr  0.45300682  0.93490996  0.05313847     2.54710
O1386       O  0.47998110  0.90852197  0.09076862    -0.79000
O1387       O  0.47468781  0.97697764  0.08276791    -0.92420
Zr1388     Zr  0.43877627  0.85867484  0.01022500     2.64680
O1389       O  0.46860996  0.83758797  0.04979135    -0.97370
O1390       O  0.43440560  0.81197896  0.48529950    -0.79430
O1391       O  0.46800385  0.90315554  0.02192912    -0.82790
O1392       O  0.42393998  0.89004047  0.04198277    -2.17500
O1393       O  0.35224759  0.97756727  0.99111811    -0.66180
O1394       O  0.34276121  0.94380469  0.01998202    -0.50750
C1395       C  0.33435991  0.95945733  0.99965704     0.72590
O1396       O  0.41123797  0.91245723  0.41531428    -0.59090
O1397       O  0.45966285  0.92729105  0.43204105    -0.51070
C1398       C  0.43662015  0.92190580  0.41254470     0.74390
O1399       O  0.33470461  0.90017807  0.44882246    -0.70480
O1400       O  0.32948262  0.89090573  0.49038852    -0.49160
C1401       C  0.32080832  0.90233726  0.46779479     0.75780
O1402       O  0.43722745  0.50077246  0.46377262    -0.65810
O1403       O  0.47872344  0.97704805  0.46580705    -0.53010
C1404       C  0.46324767  0.49840205  0.45916206     0.74160
Zr1405     Zr  0.40619417  0.97615689  0.49176599     2.77540
O1406       O  0.38451117  0.01791503  0.46751017    -0.96560
O1407       O  0.41703587  0.51542148  0.03029330    -0.77380
Zr1408     Zr  0.38864263  0.89663022  0.45011950     2.70070
O1409       O  0.35580844  0.89635448  0.40573771    -0.78630
O1410       O  0.38654524  0.84429814  0.43840587    -0.97710
Zr1411     Zr  0.46773455  0.92959724  0.48129919     2.21500
Zr1412     Zr  0.37637717  0.90543700  0.02042688     2.11130
O1413       O  0.37871388  0.93116741  0.48001185    -2.46400
O1414       O  0.41888666  0.94222096  0.46044602    -0.78420
O1415       O  0.40575458  0.95068035  0.03236994    -0.70620
O1416       O  0.43788009  0.88415176  0.46937782    -2.31580
O1417       O  0.45396421  0.96200840  0.01379501    -2.27780
O1418       O  0.39041354  0.87097486  0.48946170    -0.72380
H1419       H  0.42349715  0.87935141  0.05784128     0.79620
H1420       H  0.44512992  0.87226732  0.45673310     0.80710
H1421       H  0.36178656  0.93847362  0.46855183     0.82930
H1422       H  0.46716463  0.97952962  0.01770380     0.80540
H1423       H  0.43801852  0.81680001  0.46765830     0.43570
H1424       H  0.36541298  0.83777057  0.43586398     0.42540
H1425       H  0.35117912  0.91717537  0.40291957     0.42220
H1426       H  0.36786006  0.00930328  0.45327202     0.40160
H1427       H  0.43011354  0.50599072  0.04529576     0.43290
H1428       H  0.49032035  0.98577598  0.07478140     0.38070
H1429       H  0.99231945  0.89550247  0.08305264     0.44190
H1430       H  0.45547417  0.83570555  0.06233623     0.40600
H1431       H  0.36582989  0.52220238  0.47984554     0.45520
H1432       H  0.48547660  0.96852256  0.09948532     0.44250
H1433       H  0.47082391  0.81707170  0.04405939     0.44380
H1434       H  0.39013181  0.84344946  0.42019860     0.44740
O1435       O  0.01471821  0.93705797  0.29787310    -0.74130
O1436       O  0.02564876  0.93825633  0.25703123    -0.53040
C1437       C  0.03301853  0.93859057  0.28292765     0.79600
O1438       O  0.40968452  0.83220569  0.26354292    -0.58730
O1439       O  0.37333020  0.86121099  0.27101664    -0.51760
C1440       C  0.38440763  0.83510452  0.26826005     0.71610
O1441       O  0.99461810  0.85560498  0.24755395    -0.73290
O1442       O  0.00786076  0.89071150  0.22099161    -0.53850
C1443       C  0.01174366  0.86696304  0.23362532     0.77610
O1444       O  0.44162739  0.93407507  0.33191601    -0.58430
O1445       O  0.39236573  0.92172785  0.31693052    -0.51550
C1446       C  0.41602137  0.92705470  0.33580413     0.74210
Zr1447     Zr  0.46361143  0.94369602  0.29475494     2.54710
O1448       O  0.49529513  0.94806606  0.33973942    -0.79000
O1449       O  0.46118183  0.99588508  0.30336769    -0.92420
Zr1450     Zr  0.44703011  0.86641435  0.25750223     2.64680
O1451       O  0.47149160  0.84887442  0.30088631    -0.97370
O1452       O  0.44496525  0.81885318  0.23416127    -0.79430
O1453       O  0.47869025  0.90851173  0.26679953    -0.82790
O1454       O  0.43216929  0.90032504  0.28746582    -2.17500
O1455       O  0.38515814  0.00518718  0.24772285    -0.66180
O1456       O  0.36600337  0.97176903  0.27269203    -0.50750
C1457       C  0.36920689  0.99877109  0.26385186     0.72590
O1458       O  0.42101139  0.89740284  0.16419237    -0.59090
O1459       O  0.46241536  0.92809353  0.17553955    -0.51070
C1460       C  0.44032185  0.91526419  0.15825003     0.74390
O1461       O  0.34220427  0.89693037  0.20051906    -0.70480
O1462       O  0.33526887  0.90784944  0.24215021    -0.49160
C1463       C  0.32579573  0.89983772  0.21736767     0.75780
O1464       O  0.45935740  0.50880907  0.21184351    -0.65810
O1465       O  0.49301390  0.97405768  0.20846514    -0.53010
C1466       C  0.48462014  0.50247334  0.20744480     0.74160
Zr1467     Zr  0.42092616  0.98186782  0.23074491     2.77540
O1468       O  0.38738793  0.99424973  0.18924300    -0.96560
O1469       O  0.43098033  0.53354506  0.24911052    -0.77380
Zr1470     Zr  0.39427105  0.90339470  0.19805806     2.70070
O1471       O  0.36517970  0.92595783  0.15903096    -0.78630
O1472       O  0.37892505  0.85358513  0.17995485    -0.97710
Zr1473     Zr  0.47657950  0.92943628  0.22487303     2.21500
Zr1474     Zr  0.38489914  0.91852360  0.26797005     2.11130
O1475       O  0.38454592  0.94141651  0.22622618    -2.46400
O1476       O  0.42940313  0.94431081  0.20275328    -0.78420
O1477       O  0.41856148  0.96082935  0.27273064    -0.70620
O1478       O  0.44284848  0.88719085  0.21580428    -2.31580
O1479       O  0.46693802  0.96658410  0.25439747    -2.27780
O1480       O  0.39865540  0.88246363  0.23943574    -0.72380
H1481       H  0.43197370  0.88985695  0.30346312     0.79620
H1482       H  0.44855912  0.87321210  0.20377227     0.80710
H1483       H  0.36532847  0.94864737  0.21891506     0.82930
H1484       H  0.48208580  0.98242801  0.25768548     0.80540
H1485       H  0.43131967  0.82107634  0.21655198     0.43570
H1486       H  0.37114828  0.84374117  0.19403845     0.42540
H1487       H  0.37770473  0.94328646  0.15622997     0.42220
H1488       H  0.36761076  0.99413477  0.19328678     0.40160
H1489       H  0.43225960  0.53271661  0.26853819     0.43290
H1490       H  0.48209017  0.00306962  0.30694304     0.38070
H1491       H  0.99984277  0.92588730  0.34446985     0.44190
H1492       H  0.45540134  0.83941255  0.30795226     0.40600
H1493       H  0.39545961  0.51681668  0.18816908     0.45520
H1494       H  0.45602977  0.99730423  0.32093932     0.44250
H1495       H  0.48278548  0.83231871  0.29661775     0.44380
H1496       H  0.36123526  0.85589195  0.16535812     0.44740
O1497       O  0.24170317  0.71620325  0.08190864    -0.74130
O1498       O  0.24050380  0.67247254  0.10087309    -0.53040
C1499       C  0.22962442  0.69685068  0.09543018     0.79600
O1500       O  0.28682657  0.67002917  0.46466048    -0.58730
O1501       O  0.33468427  0.68593689  0.48115721    -0.51760
C1502       C  0.31278316  0.67754785  0.46191057     0.71610
O1503       O  0.21041268  0.65370051  0.49962012    -0.73290
O1504       O  0.20763052  0.66576296  0.04059750    -0.53850
C1505       C  0.19824101  0.66701969  0.01479309     0.77610
O1506       O  0.32917611  0.75336477  0.05303090    -0.58430
O1507       O  0.35838653  0.72728637  0.03174094    -0.51550
C1508       C  0.35080582  0.75130779  0.04123546     0.74210
Zr1509     Zr  0.29114184  0.72033904  0.06598598     2.54710
O1510       O  0.26829972  0.76552727  0.05093967    -0.79000
O1511       O  0.30972649  0.74594518  0.10925171    -0.92420
Zr1512     Zr  0.25878626  0.67220166  0.99825805     2.64680
O1513       O  0.24219559  0.71983576  0.48165229    -0.97370
O1514       O  0.22784420  0.65679422  0.45443757    -0.79430
O1515       O  0.25307450  0.68827685  0.04117909    -0.82790
O1516       O  0.29705827  0.70516059  0.02234471    -2.17500
O1517       O  0.38760367  0.64324786  0.08600387    -0.66180
O1518       O  0.38980662  0.67139722  0.05112836    -0.50750
C1519       C  0.39772917  0.64939664  0.06533743     0.72590
O1520       O  0.25003799  0.57400360  0.03097788    -0.59090
O1521       O  0.24050238  0.59539306  0.06777450    -0.51070
C1522       C  0.23278136  0.57890651  0.04680883     0.74390
O1523       O  0.34782369  0.59395697  0.02008977    -0.70480
O1524       O  0.36268118  0.63861473  0.00778764    -0.49160
C1525       C  0.36827547  0.61340990  0.01748085     0.75780
O1526       O  0.31470973  0.63841026  0.12986985    -0.65810
O1527       O  0.26444756  0.63632279  0.11546048    -0.53010
C1528       C  0.28861595  0.63587940  0.13385668     0.74160
Zr1529     Zr  0.33861058  0.65245173  0.09549448     2.77540
O1530       O  0.36310573  0.61736034  0.12679697    -0.96560
O1531       O  0.36638866  0.69205862  0.12502782    -0.77380
Zr1532     Zr  0.29774221  0.60064935  0.02861481     2.70070
O1533       O  0.31113797  0.55414622  0.04886436    -0.78630
O1534       O  0.28512227  0.57847051  0.98355246    -0.97710
Zr1535     Zr  0.25503745  0.64594336  0.06753564     2.21500
Zr1536     Zr  0.33944751  0.67656186  0.02774291     2.11130
O1537       O  0.33510236  0.63405636  0.05282529    -2.46400
O1538       O  0.29813256  0.61867427  0.07296342    -0.78420
O1539       O  0.33684020  0.69563664  0.07082233    -0.70620
O1540       O  0.25633395  0.62947266  0.02328878    -2.31580
O1541       O  0.29505683  0.67830151  0.09139508    -2.27780
O1542       O  0.30037631  0.64357911  0.00326582    -0.72380
H1543       H  0.29950132  0.72193130  0.01184881     0.79620
H1544       H  0.23927240  0.61752803  0.01396091     0.80710
H1545       H  0.35037413  0.62073997  0.05710620     0.82930
H1546       H  0.29332777  0.68475228  0.10893380     0.80540
H1547       H  0.23040686  0.63542668  0.45282432     0.43570
H1548       H  0.29831440  0.58904219  0.47398342     0.42540
H1549       H  0.32640952  0.55983060  0.06533553     0.42220
H1550       H  0.36751612  0.60112815  0.11542041     0.40160
H1551       H  0.38565958  0.69405811  0.12001208     0.43290
H1552       H  0.29262571  0.74532554  0.11765451     0.38070
H1553       H  0.27186130  0.76768486  0.03284934     0.44190
H1554       H  0.26010010  0.73174299  0.48020428     0.40600
H1555       H  0.38264626  0.62715875  0.13533202     0.45520
H1556       H  0.31239096  0.76683279  0.10497062     0.44250
H1557       H  0.23175448  0.71542209  0.46280317     0.44380
H1558       H  0.29232367  0.55840532  0.98568503     0.44740
O1559       O  0.28375659  0.75141978  0.33658381    -0.74130
O1560       O  0.25039877  0.71586509  0.34335859    -0.53040
C1561       C  0.26174780  0.74220538  0.34619960     0.79600
O1562       O  0.28656880  0.65474659  0.21412231    -0.58730
O1563       O  0.33691641  0.65940600  0.22526496    -0.51760
C1564       C  0.31189845  0.65291457  0.20868871     0.71610
O1565       O  0.21947087  0.68682867  0.25355358    -0.73290
O1566       O  0.21485552  0.68813436  0.29662833    -0.53850
C1567       C  0.20471579  0.69081465  0.27130349     0.77610
O1568       O  0.34654293  0.75536133  0.28836789    -0.58430
O1569       O  0.36834444  0.72106067  0.26708182    -0.51550
C1570       C  0.36381392  0.74882646  0.27382299     0.74210
Zr1571     Zr  0.31440357  0.72928885  0.30840180     2.54710
O1572       O  0.29089192  0.77117845  0.28604111    -0.79000
O1573       O  0.35096445  0.75707931  0.34318358    -0.92420
Zr1574     Zr  0.26785358  0.67576959  0.24991683     2.64680
O1575       O  0.26374071  0.71501043  0.21895293    -0.97370
O1576       O  0.22840044  0.64923695  0.21704611    -0.79430
O1577       O  0.26861620  0.70535617  0.28903717    -0.82790
O1578       O  0.31297012  0.70244234  0.26683321    -2.17500
O1579       O  0.39832569  0.66017543  0.33689965    -0.66180
O1580       O  0.40105103  0.66272678  0.29333215    -0.50750
C1581       C  0.41314348  0.66082783  0.31822670     0.72590
O1582       O  0.23914553  0.59640102  0.30065327    -0.59090
O1583       O  0.22571019  0.63549726  0.32271452    -0.51070
C1584       C  0.22028372  0.61028233  0.31076217     0.74390
O1585       O  0.32459336  0.57754116  0.27965047    -0.70480
O1586       O  0.35815711  0.60964286  0.26676377    -0.49160
C1587       C  0.34762756  0.58265800  0.27067402     0.75780
O1588       O  0.32437365  0.66224257  0.38356640    -0.65810
O1589       O  0.27398130  0.66374804  0.36942181    -0.53010
C1590       C  0.29812714  0.66285221  0.38748555     0.74160
Zr1591     Zr  0.34722442  0.66069687  0.34603968     2.77540
O1592       O  0.36395726  0.61551731  0.36732056    -0.96560
O1593       O  0.38042143  0.68991459  0.38212957    -0.77380
Zr1594     Zr  0.29006868  0.60789572  0.29309035     2.70070
O1595       O  0.29753996  0.56886463  0.32489358    -0.78630
O1596       O  0.26410919  0.57747176  0.25416188    -0.97710
Zr1597     Zr  0.26271548  0.67267306  0.32232520     2.21500
Zr1598     Zr  0.34903092  0.66587134  0.27361986     2.11130
O1599       O  0.33911239  0.63251037  0.30654793    -2.46400
O1600       O  0.29832573  0.63630522  0.33312792    -0.78420
O1601       O  0.35265694  0.69495402  0.31399340    -0.70620
O1602       O  0.25666029  0.64456908  0.28182394    -2.31580
O1603       O  0.31030745  0.69609195  0.34061847    -2.27780
O1604       O  0.30175130  0.63922506  0.25987442    -0.72380
H1605       H  0.31542470  0.71561879  0.25306000     0.79620
H1606       H  0.23661729  0.63721424  0.27409569     0.80710
H1607       H  0.35397555  0.61835353  0.31100274     0.82930
H1608       H  0.31122544  0.70681376  0.35724201     0.80540
H1609       H  0.23223217  0.62826680  0.22000340     0.43570
H1610       H  0.27492248  0.58181252  0.24013592     0.42540
H1611       H  0.31823853  0.57258684  0.33523693     0.42220
H1612       H  0.38028262  0.60985893  0.35922642     0.40160
H1613       H  0.38600455  0.70784807  0.37354875     0.43290
H1614       H  0.34682847  0.75058024  0.36020585     0.38070
H1615       H  0.28094112  0.76331419  0.26788485     0.44190
H1616       H  0.28013221  0.71286446  0.20990004     0.40600
H1617       H  0.37384062  0.62189395  0.38592601     0.45520
H1618       H  0.34481565  0.77757175  0.34181795     0.44250
H1619       H  0.24572564  0.70877137  0.20508315     0.44380
H1620       H  0.26848042  0.55700098  0.25894091     0.44740
O1621       O  0.07287517  0.00227191  0.08097308    -0.74130
O1622       O  0.05540445  0.99250508  0.11658605    -0.53040
C1623       C  0.05809324  0.98524464  0.09282889     0.79600
O1624       O  0.16437381  0.56784158  0.07433412    -0.58730
O1625       O  0.14454193  0.61092400  0.05964957    -0.51760
C1626       C  0.16201662  0.58968689  0.05907277     0.71610
O1627       O  0.14978965  0.50635125  0.13508774    -0.73290
O1628       O  0.11352294  0.00064275  0.15776320    -0.53850
C1629       C  0.13700401  0.99304218  0.15123248     0.77610
O1630       O  0.06345848  0.56985255  0.02889884    -0.58430
O1631       O  0.08529707  0.61620060  0.03540726    -0.51550
C1632       C  0.07337157  0.59348741  0.02052456     0.74210
Zr1633     Zr  0.05736828  0.54992999  0.06964090     2.54710
O1634       O  0.03800932  0.51763218  0.03022444    -0.79000
O1635       O  0.00338107  0.54810674  0.06050848    -0.92420
Zr1636     Zr  0.14290851  0.55089990  0.10949636     2.64680
O1637       O  0.15685657  0.50893490  0.08581376    -0.97370
O1638       O  0.19343610  0.56425910  0.13412726    -0.79430
O1639       O  0.09468385  0.53013045  0.10269490    -0.82790
O1640       O  0.10610771  0.56979036  0.07438286    -2.17500
O1641       O  0.04413840  0.65870562  0.10948798    -0.66180
O1642       O  0.07867163  0.66660264  0.08461582    -0.50750
C1643       C  0.05979962  0.67544675  0.09768816     0.72590
O1644       O  0.10693564  0.59491038  0.19718460    -0.59090
O1645       O  0.09072181  0.54631749  0.19059176    -0.51070
C1646       C  0.09594362  0.57056629  0.20463330     0.74390
O1647       O  0.16166736  0.64764044  0.14131235    -0.70480
O1648       O  0.14450462  0.65934858  0.09778478    -0.49160
C1649       C  0.16394476  0.66202396  0.12008583     0.75780
O1650       O  0.51476949  0.57857263  0.15024677    -0.65810
O1651       O  0.03665263  0.53660789  0.15938539    -0.53010
C1652       C  0.01637770  0.55417297  0.16075180     0.74160
Zr1653     Zr  0.04200999  0.60745106  0.12093143     2.77540
O1654       O  0.02395376  0.63713139  0.15316662    -0.96560
O1655       O  0.49438322  0.60624212  0.08903874    -0.77380
Zr1656     Zr  0.12823835  0.61128128  0.15925989     2.70070
O1657       O  0.12631246  0.65754178  0.18338221    -0.78630
O1658       O  0.17349179  0.60149084  0.19153453    -0.97710
Zr1659     Zr  0.08038016  0.53763605  0.14286148     2.21500
Zr1660     Zr  0.10516592  0.62106951  0.08368561     2.11130
O1661       O  0.09154838  0.62930862  0.12555196    -2.46400
O1662       O  0.07981430  0.58863389  0.15338232    -0.78420
O1663       O  0.05539766  0.60091562  0.07898633    -0.70620
O1664       O  0.12964537  0.55997865  0.15036270    -2.31580
O1665       O  0.04198728  0.55655982  0.10974616    -2.27780
O1666       O  0.14192987  0.60189327  0.11853246    -0.72380
H1667       H  0.11112692  0.56523995  0.05767921     0.79620
H1668       H  0.14304005  0.55173317  0.16518960     0.80710
H1669       H  0.09366683  0.64975335  0.13132055     0.82930
H1670       H  0.02314375  0.54620063  0.10893571     0.80540
H1671       H  0.19500315  0.55555595  0.15177277     0.43570
H1672       H  0.18947417  0.60748728  0.18266721     0.42540
H1673       H  0.10536370  0.65831124  0.18432543     0.42220
H1674       H  0.04068679  0.65133326  0.16128198     0.40160
H1675       H  0.48068154  0.59456929  0.09742274     0.43290
H1676       H  0.49482568  0.54913330  0.06857598     0.38070
H1677       H  0.05702177  0.01304793  0.02384195     0.44190
H1678       H  0.14649291  0.51075212  0.06688002     0.40600
H1679       H  0.50840615  0.64834071  0.14286438     0.45520
H1680       H  0.99767475  0.56311801  0.04701251     0.44250
H1681       H  0.17807652  0.51303398  0.08627890     0.44380
H1682       H  0.17496460  0.61657055  0.20606787     0.44740
O1683       O  0.03781703  0.98671108  0.32058151    -0.74130
O1684       O  0.06857922  0.98191675  0.36077043    -0.53040
C1685       C  0.05803666  0.97328372  0.33599721     0.79600
O1686       O  0.14491693  0.58353853  0.33127028    -0.58730
O1687       O  0.11700287  0.62121998  0.31346560    -0.51760
C1688       C  0.14074455  0.60626121  0.31735151     0.71610
O1689       O  0.13648365  0.01299308  0.38394691    -0.73290
O1690       O  0.10353310  0.00200970  0.40941959    -0.53850
C1691       C  0.12732525  0.99841310  0.40182492     0.77610
O1692       O  0.05438988  0.56227366  0.27100880    -0.58430
O1693       O  0.06209974  0.61187939  0.27806133    -0.51550
C1694       C  0.06150468  0.58819392  0.26388617     0.74210
Zr1695     Zr  0.03870296  0.54029874  0.30955639     2.54710
O1696       O  0.04077856  0.50512143  0.27382809    -0.79000
O1697       O  0.98931600  0.54674234  0.28271492    -0.92420
Zr1698     Zr  0.11988834  0.55650385  0.35844602     2.64680
O1699       O  0.13939575  0.52014141  0.33266653    -0.97370
O1700       O  0.16736227  0.57327758  0.38755683    -0.79430
O1701       O  0.07521517  0.52926482  0.34800857    -0.82790
O1702       O  0.08381208  0.56858630  0.31986681    -2.17500
O1703       O  0.99898941  0.63636226  0.34769993    -0.66180
O1704       O  0.01707033  0.63932793  0.31099745    -0.50750
C1705       C  0.99630862  0.64380853  0.32383843     0.72590
O1706       O  0.07722557  0.59186605  0.44085197    -0.59090
O1707       O  0.06346135  0.54282923  0.43516812    -0.51070
C1708       C  0.06953824  0.56730278  0.44933181     0.74390
O1709       O  0.10048715  0.65773129  0.38670926    -0.70480
O1710       O  0.08636365  0.66386866  0.34164789    -0.49160
C1711       C  0.09732864  0.67284780  0.36566045     0.75780
O1712       O  0.48435611  0.55588827  0.38987771    -0.65810
O1713       O  0.01166037  0.51471575  0.39953479    -0.53010
C1714       C  0.48924057  0.53111179  0.40120473     0.74160
Zr1715     Zr  0.00639724  0.58726085  0.36050903     2.77540
O1716       O  0.98065333  0.61146663  0.39048461    -0.96560
O1717       O  0.45905380  0.57565093  0.32784331    -0.77380
Zr1718     Zr  0.08859083  0.60976590  0.40142044     2.70070
O1719       O  0.08114557  0.64913565  0.43164586    -0.78630
O1720       O  0.13987450  0.61067926  0.42671717    -0.97710
Zr1721     Zr  0.05710150  0.52962949  0.38712457     2.21500
Zr1722     Zr  0.06747015  0.61644485  0.32568165     2.11130
O1723       O  0.04973177  0.62051777  0.36578836    -2.46400
O1724       O  0.04539360  0.57801427  0.39615172    -0.78420
O1725       O  0.02281299  0.58623956  0.31946461    -0.70620
O1726       O  0.10138491  0.56108815  0.39687877    -2.31580
O1727       O  0.01880109  0.53975465  0.34901728    -2.27780
O1728       O  0.10672537  0.60553274  0.36296985    -0.72380
H1729       H  0.09419674  0.56704671  0.30581819     0.79620
H1730       H  0.11539314  0.55593064  0.41281770     0.80710
H1731       H  0.04641225  0.64073630  0.36966034     0.82930
H1732       H  0.50158531  0.52559024  0.34713495     0.80540
H1733       H  0.16902472  0.56159923  0.40371738     0.43570
H1734       H  0.15000487  0.62702101  0.41936907     0.42540
H1735       H  0.06013644  0.65348155  0.42510152     0.42220
H1736       H  0.99164429  0.63072687  0.39581310     0.40160
H1737       H  0.45999077  0.58761345  0.31227042     0.43290
H1738       H  0.48813975  0.53440011  0.26598406     0.38070
H1739       H  0.05954904  0.00020095  0.27284540     0.44190
H1740       H  0.13040312  0.52395240  0.31376714     0.40600
H1741       H  0.45986592  0.61568364  0.37710602     0.45520
H1742       H  0.98975082  0.56707384  0.27641984     0.44250
H1743       H  0.16059030  0.52639338  0.33517018     0.44380
H1744       H  0.13935561  0.61797576  0.44487698     0.44740
C1745       C  0.08695702  0.56973999  0.23032758    -0.15270
C1746       C  0.07191687  0.59097039  0.23889462    -0.30450
H1747       H  0.08956872  0.54935170  0.24089354     0.13750
H1748       H  0.06901875  0.61138428  0.22841190     0.14330
C1749       C  0.06743096  0.56821547  0.47733576    -0.15270
C1750       C  0.07227957  0.59314236  0.99191775    -0.30450
H1751       H  0.06228487  0.54759836  0.48587140     0.13750
H1752       H  0.07779799  0.61374023  0.98353765     0.14330
C1753       C  0.44607534  0.65837125  0.32677549    -0.15270
C1754       C  0.46608668  0.65502356  0.31105528    -0.30450
H1755       H  0.45390897  0.65715496  0.34824742     0.13750
H1756       H  0.45918547  0.65661009  0.28954226     0.14330
C1757       C  0.16687652  0.61583794  0.30719148    -0.15270
C1758       C  0.18977958  0.59782616  0.30830743    -0.30450
H1759       H  0.16962975  0.63897399  0.30312257     0.13750
H1760       H  0.18675000  0.57432079  0.31069579     0.14330
C1761       C  0.29531302  0.66380605  0.41487730    -0.15270
C1762       C  0.31734239  0.67516470  0.43489613    -0.30450
H1763       H  0.27376943  0.65706119  0.41825594     0.13750
H1764       H  0.33859687  0.68269772  0.43134581     0.14330
C1765       C  0.31221820  0.64335161  0.18137682    -0.15270
C1766       C  0.28726913  0.63621090  0.16216271    -0.30450
H1767       H  0.33374100  0.64466991  0.17652703     0.13750
H1768       H  0.26570125  0.63516370  0.16692067     0.14330
C1769       C  0.41320950  0.62636978  0.05387521    -0.15270
C1770       C  0.39937967  0.60938391  0.03177543    -0.30450
H1771       H  0.43479740  0.62071506  0.06512098     0.13750
H1772       H  0.41030426  0.59063079  0.02603320     0.14330
C1773       C  0.18221175  0.59053977  0.04074564    -0.15270
C1774       C  0.20133038  0.56903791  0.04022922    -0.30450
H1775       H  0.18735960  0.61208926  0.03405205     0.13750
H1776       H  0.19622057  0.54702440  0.04614529     0.14330
C1777       C  0.06432027  0.93976453  0.29774268    -0.15270
C1778       C  0.07345246  0.95067492  0.32345300    -0.30450
H1779       H  0.07972352  0.92818564  0.28890238     0.13750
H1780       H  0.09564580  0.94631208  0.33414362     0.14330
C1781       C  0.50372657  0.52431651  0.19724273    -0.15270
C1782       C  0.49514290  0.54353289  0.17769375    -0.30450
H1783       H  0.52715290  0.52033663  0.20307892     0.13750
H1784       H  0.97369092  0.55360402  0.17481095     0.14330
C1785       C  0.36841424  0.80542086  0.27084430    -0.15270
C1786       C  0.37813868  0.77734967  0.26581086    -0.30450
H1787       H  0.34856924  0.80679005  0.27834429     0.13750
H1788       H  0.39734515  0.77568967  0.25741817     0.14330
C1789       C  0.35450066  0.52591812  0.27161519    -0.15270
C1790       C  0.36226640  0.55461109  0.26497295    -0.30450
H1791       H  0.33760093  0.02295766  0.28269053     0.13750
H1792       H  0.37984464  0.55775643  0.25453463     0.14330
C1793       C  0.43867100  0.92690966  0.38471004    -0.15270
C1794       C  0.41436283  0.92386748  0.36392658    -0.30450
H1795       H  0.46030587  0.93298515  0.38123838     0.13750
H1796       H  0.39273125  0.91798695  0.36749409     0.14330
C1797       C  0.40797802  0.91622544  0.11344063    -0.15270
C1798       C  0.43488839  0.92280600  0.13002560    -0.30450
H1799       H  0.39092568  0.90338284  0.12012640     0.13750
H1800       H  0.45198254  0.93548708  0.12327746     0.14330
C1801       C  0.04435964  0.95484221  0.05101748    -0.15270
C1802       C  0.04208792  0.95932502  0.07673956    -0.30850
H1803       H  0.06313600  0.96464526  0.04450929     0.13750
H1804       H  0.02422076  0.94824346  0.08359124     0.14330
C1805       C  0.46826116  0.51941430  0.41667615    -0.15270
C1806       C  0.47581076  0.52044094  0.44360485    -0.30450
H1807       H  0.44897597  0.50584442  0.40609121     0.13750
H1808       H  0.49158358  0.03504399  0.45218007     0.14330
C1809       C  0.36007311  0.80559370  0.04009262    -0.15270
C1810       C  0.36848776  0.77814845  0.03734489    -0.30450
H1811       H  0.33982834  0.80886723  0.04658218     0.13750
H1812       H  0.38821166  0.77496836  0.02997382     0.14330
C1813       C  0.30448107  0.95090077  0.48034894    -0.15270
C1814       C  0.29843093  0.92473483  0.46595848    -0.30450
H1815       H  0.28842712  0.96761336  0.47637820     0.13750
H1816       H  0.27772619  0.92127152  0.45102321     0.14330
C1817       C  0.17708303  0.69779704  0.47629674    -0.15270
C1818       C  0.18034689  0.69227874  0.50286012    -0.30450
H1819       H  0.18134097  0.68083419  0.46272704     0.13750
H1820       H  0.17548619  0.70898292  0.51640005     0.14330
C1821       C  0.25694603  0.77218823  0.38586629    -0.15270
C1822       C  0.24647223  0.76258896  0.36028911    -0.30450
H1823       H  0.28002740  0.77042712  0.39582318     0.13750
H1824       H  0.22309670  0.76435679  0.35131768     0.14330
C1825       C  0.22322776  0.90539188  0.51206132    -0.15270
C1826       C  0.20799617  0.89107108  0.52814293    -0.30450
H1827       H  0.24381680  0.91785297  0.52112175     0.13750
H1828       H  0.21680943  0.89249293  0.54961627     0.14330
C1829       C  0.03047277  0.85905493  0.47981093    -0.15270
C1830       C  0.05281071  0.87674499  0.47489601    -0.30450
H1831       H  0.03114486  0.83526008  0.47852309     0.13750
H1832       H  0.05277705  0.90048661  0.47764869     0.14330
C1833       C  0.08826092  0.71707678  0.38523924    -0.15270
C1834       C  0.10348526  0.70354075  0.37008971    -0.30450
H1835       H  0.07126813  0.70521369  0.39294051     0.13750
H1836       H  0.11997016  0.71467141  0.36132507     0.14330
C1837       C  0.13879267  0.95024388  0.39397886    -0.15270
C1838       C  0.14221311  0.97279328  0.41160821    -0.30450
H1839       H  0.13274945  0.95388494  0.37267805     0.13750
H1840       H  0.14695133  0.96938844  0.43295177     0.14330
C1841       C  0.13887775  0.78973180  0.29455314    -0.15270
C1842       C  0.15741870  0.77914265  0.31609103    -0.30450
H1843       H  0.11893751  0.79954287  0.29722821     0.13750
H1844       H  0.17653949  0.76772112  0.31358598     0.14330
C1845       C  0.20313161  0.81556896  0.08685473    -0.15270
C1846       C  0.22605777  0.80363297  0.10357721    -0.30450
H1847       H  0.20184628  0.81575696  0.06558252     0.13750
H1848       H  0.24352352  0.79418593  0.09594567     0.14330
C1849       C  0.17503518  0.70149890  0.26081035    -0.15270
C1850       C  0.16304266  0.69722169  0.23438399    -0.30450
H1851       H  0.16889070  0.71998830  0.27171651     0.13750
H1852       H  0.16975203  0.67847609  0.22419179     0.14330
C1853       C  0.19949250  0.69780737  0.10179652    -0.15270
C1854       C  0.19284241  0.67924594  0.12065490    -0.30450
H1855       H  0.18181090  0.70684027  0.08719192     0.13750
H1856       H  0.21135576  0.67200365  0.13565225     0.14330
C1857       C  0.27483124  0.89107945  0.22319397    -0.15270
C1858       C  0.29388336  0.89272293  0.20715402    -0.30450
H1859       H  0.28254880  0.89625987  0.24448225     0.13750
H1860       H  0.28634483  0.88616004  0.18610595     0.14330
C1861       C  0.03908998  0.85357637  0.23280345    -0.15270
C1862       C  0.03955947  0.82883009  0.21846671    -0.30450
H1863       H  0.05899374  0.86819626  0.23845429     0.13750
H1864       H  0.01999944  0.81393334  0.21207471     0.14330
C1865       C  0.06054487  0.70725423  0.10414413    -0.15270
C1866       C  0.06053463  0.71668637  0.12947873    -0.30450
H1867       H  0.06927565  0.72184538  0.09110976     0.13750
H1868       H  0.05356805  0.70147777  0.14303789     0.14330
C1869       C  0.14870088  0.96634922  0.16322406    -0.15270
C1870       C  0.16407431  0.94831057  0.15151700    -0.30450
H1871       H  0.13979222  0.95878084  0.17979614     0.13750
H1872       H  0.17341002  0.95534881  0.13506601     0.14330
O1873       O  0.14848831  0.91134131  0.67225709    -0.74130
O1874       O  0.18472988  0.90320519  0.65039459    -0.53040
C1875       C  0.16802931  0.92007898  0.65972349     0.79600
O1876       O  0.16842148  0.81391526  0.76624871    -0.58730
O1877       O  0.12527499  0.78698554  0.74750631    -0.51760
C1878       C  0.14511750  0.79797859  0.76779956     0.71610
O1879       O  0.23143176  0.86991064  0.73008255    -0.73290
O1880       O  0.23444648  0.87773259  0.68704123    -0.53850
C1881       C  0.24430424  0.88060213  0.71253360     0.77610
O1882       O  0.07556246  0.85315763  0.69097364    -0.58430
O1883       O  0.07415419  0.80622745  0.70550326    -0.51550
C1884       C  0.06319678  0.83135020  0.70023307     0.74210
Zr1885     Zr  0.12125193  0.86678721  0.67907720     2.54710
O1886       O  0.11172871  0.90408302  0.71025921    -0.79000
O1887       O  0.08572159  0.88872462  0.64358478    -0.92420
Zr1888     Zr  0.18885617  0.83647651  0.73092873     2.64680
O1889       O  0.18806825  0.87739236  0.76211542    -0.97370
O1890       O  0.23040105  0.81457888  0.76018055    -0.79430
O1891       O  0.17300027  0.86815179  0.69536969    -0.82790
O1892       O  0.13654398  0.83577901  0.71524853    -2.17500
O1893       O  0.08831338  0.76227383  0.62619227    -0.66180
O1894       O  0.08451254  0.75122762  0.66824076    -0.50750
C1895       C  0.07823957  0.74634187  0.64254570     0.72590
O1896       O  0.21345343  0.77958727  0.63984873    -0.59090
O1897       O  0.23117226  0.82704003  0.64511109    -0.51070
C1898       C  0.22643853  0.80224929  0.63197159     0.74390
O1899       O  0.17766606  0.73426072  0.70670996    -0.70480
O1900       O  0.13354569  0.74020029  0.71786057    -0.49160
C1901       C  0.15704764  0.72650594  0.71855444     0.75780
O1902       O  0.15891779  0.80604177  0.59918904    -0.65810
O1903       O  0.18432211  0.84992609  0.61034953    -0.53010
C1904       C  0.17933395  0.82534501  0.59691630     0.74160
Zr1905     Zr  0.12258048  0.80382691  0.62698933     2.77540
O1906       O  0.10120643  0.78018116  0.58319193    -0.96560
O1907       O  0.08658864  0.83740247  0.60471203    -0.77380
Zr1908     Zr  0.19230250  0.77280946  0.67906275     2.70070
O1909       O  0.19904846  0.72358141  0.66372840    -0.78630
O1910       O  0.24374472  0.77411175  0.70359051    -0.97710
Zr1911     Zr  0.19177017  0.85193621  0.65858042     2.21500
Zr1912     Zr  0.11967038  0.78663850  0.69887597     2.11130
O1913       O  0.13999278  0.77086522  0.66244414    -2.46400
O1914       O  0.17368704  0.80343272  0.64396458    -0.78420
O1915       O  0.10256842  0.81848508  0.66316778    -0.70620
O1916       O  0.20947171  0.82121422  0.69500550    -2.31580
O1917       O  0.13951806  0.85279600  0.64171720    -2.27780
O1918       O  0.17213964  0.78808343  0.71484262    -0.72380
H1919       H  0.12762107  0.84159889  0.72960259     0.79620
H1920       H  0.23077286  0.82321934  0.69999563     0.80710
H1921       H  0.13468345  0.75047266  0.65704967     0.82930
H1922       H  0.13485314  0.86647942  0.62754798     0.80540
H1923       H  0.24640338  0.81549394  0.75044111     0.43570
H1924       H  0.24324993  0.76394003  0.72021171     0.42540
H1925       H  0.17881700  0.71402241  0.65965573     0.42220
H1926       H  0.11483565  0.76481248  0.58102862     0.40160
H1927       H  0.06781433  0.83049910  0.60910107     0.43290
H1928       H  0.09668576  0.90577448  0.63810258     0.38070
H1929       H  0.12875600  0.90387040  0.72587209     0.44190
H1930       H  0.16767140  0.87633868  0.76481482     0.40600
H1931       H  0.10376675  0.79506927  0.57012141     0.45520
H1932       H  0.07158111  0.89760038  0.65272009     0.44250
H1933       H  0.20050041  0.87155181  0.77930224     0.44380
H1934       H  0.25338501  0.76108386  0.69296753     0.44740
O1935       O  0.07434090  0.83632102  0.95882573    -0.74130
O1936       O  0.10091369  0.88032056  0.96768888    -0.53040
C1937       C  0.07853673  0.86268562  0.96861748     0.79600
O1938       O  0.17351129  0.74705509  0.98252764    -0.58730
O1939       O  0.16938303  0.73024544  0.93939288    -0.51760
C1940       C  0.17234740  0.72632825  0.96492441     0.71610
O1941       O  0.18581210  0.84223804  0.51840589    -0.73290
O1942       O  0.16163387  0.87936971  0.00299565    -0.53850
C1943       C  0.18213614  0.87020028  0.51691774     0.77610
O1944       O  0.08351594  0.75750564  0.91440167    -0.58430
O1945       O  0.11366216  0.76094545  0.88682707    -0.51550
C1946       C  0.09512935  0.74639069  0.89678714     0.74210
Zr1947     Zr  0.09563815  0.80734508  0.92962431     2.54710
O1948       O  0.05739855  0.78073183  0.94641423    -0.79000
O1949       O  0.05568059  0.82002648  0.89277399    -0.92420
Zr1950     Zr  0.17024302  0.79957887  0.98400357     2.64680
O1951       O  0.13697375  0.78815826  0.01294652    -0.97370
O1952       O  0.21308857  0.78507964  0.01673903    -0.79430
O1953       O  0.12860772  0.82751297  0.96909716    -0.82790
O1954       O  0.13665735  0.77815260  0.94549754    -2.17500
O1955       O  0.14294671  0.81330145  0.84708656    -0.66180
O1956       O  0.15974599  0.76917957  0.86208009    -0.50750
C1957       C  0.15134931  0.78743306  0.84320941     0.72590
O1958       O  0.23132531  0.88257063  0.97046897    -0.59090
O1959       O  0.18992805  0.90640973  0.97111648    -0.51070
C1960       C  0.21583129  0.89887289  0.98234809     0.74390
O1961       O  0.23989688  0.80616841  0.91168207    -0.70480
O1962       O  0.20936638  0.76458072  0.89904376    -0.49160
C1963       C  0.23348136  0.78027895  0.90021296     0.75780
O1964       O  0.13855952  0.90058193  0.88640069    -0.65810
O1965       O  0.13823538  0.91472875  0.92916412    -0.53010
C1966       C  0.13808911  0.91990751  0.90476935     0.74160
Zr1967     Zr  0.13948985  0.84792924  0.88284406     2.77540
O1968       O  0.16088028  0.87307442  0.84995408    -0.96560
O1969       O  0.09040966  0.85069798  0.85371693    -0.77380
Zr1970     Zr  0.21591641  0.84193494  0.93542901     2.70070
O1971       O  0.23237781  0.87795135  0.90708116    -0.78630
O1972       O  0.26599876  0.83700417  0.96181532    -0.97710
Zr1973     Zr  0.14777668  0.87222660  0.95529131     2.21500
Zr1974     Zr  0.16341317  0.77448815  0.91092382     2.11130
O1975       O  0.18152477  0.82047262  0.89800413    -2.46400
O1976       O  0.17401430  0.86999799  0.92055888    -0.78420
O1977       O  0.12150834  0.80257071  0.89521389    -0.70620
O1978       O  0.18810767  0.84145910  0.96749757    -2.31580
O1979       O  0.11241299  0.85336913  0.91651098    -2.27780
O1980       O  0.19770033  0.79604596  0.94955518    -0.72380
H1981       H  0.12862011  0.75937408  0.94962035     0.79620
H1982       H  0.20397902  0.84659186  0.98242206     0.80710
H1983       H  0.19115540  0.81820454  0.88344985     0.82930
H1984       H  0.09644850  0.86630214  0.91129927     0.80540
H1985       H  0.22899353  0.80099955  0.51486425     0.43570
H1986       H  0.26743000  0.81563050  0.96446999     0.42540
H1987       H  0.22784663  0.86805622  0.88911839     0.42220
H1988       H  0.17803973  0.86178776  0.84838165     0.40160
H1989       H  0.08424114  0.83011587  0.84731208     0.43290
H1990       H  0.04160081  0.82964897  0.90149589     0.38070
H1991       H  0.06796565  0.77361578  0.96385024     0.44190
H1992       H  0.12478823  0.77055474  0.00421107     0.40600
H1993       H  0.14628207  0.86917534  0.83270757     0.45520
H1994       H  0.04542842  0.80089512  0.88558547     0.44250
H1995       H  0.14919816  0.78483901  0.52966081     0.44380
H1996       H  0.27897389  0.84171071  0.94955501     0.44740
O1997       O  0.99352317  0.94339498  0.53799716    -0.74130
O1998       O  0.01625992  0.94612067  0.50679212    -0.53040
C1999       C  0.01760556  0.94765176  0.53179394     0.79600
O2000       O  0.40161977  0.82852705  0.52514180    -0.58730
O2001       O  0.36414645  0.85611738  0.53178427    -0.51760
C2002       C  0.37675591  0.83168537  0.53182607     0.71610
O2003       O  0.98746457  0.85260976  0.99961773    -0.73290
O2004       O  0.00048118  0.89301324  0.97868841    -0.53850
C2005       C  0.00506628  0.86763597  0.98814103     0.77610
O2006       O  0.41529768  0.94563729  0.57527291    -0.58430
O2007       O  0.38152643  0.90801082  0.56723374    -0.51550
C2008       C  0.40111554  0.92466069  0.58335442     0.74210
Zr2009     Zr  0.45295101  0.93543022  0.55279127     2.54710
O2010       O  0.47853753  0.90757702  0.58998829    -0.79000
O2011       O  0.47432069  0.97656113  0.58357698    -0.92420
Zr2012     Zr  0.43960817  0.85911017  0.50992800     2.64680
O2013       O  0.46951126  0.83837598  0.54964563    -0.97370
O2014       O  0.43306553  0.81158716  0.98547586    -0.79430
O2015       O  0.46840171  0.90394385  0.52158794    -0.82790
O2016       O  0.42409055  0.89032589  0.54139294    -2.17500
O2017       O  0.35188860  0.97719172  0.49007588    -0.66180
O2018       O  0.34229875  0.94323789  0.51872590    -0.50750
C2019       C  0.33397782  0.95893870  0.49842523     0.72590
O2020       O  0.41070528  0.91263430  0.91542979    -0.59090
O2021       O  0.45919988  0.92699874  0.93232570    -0.51070
C2022       C  0.43622683  0.92191465  0.91274241     0.74390
O2023       O  0.33421513  0.90075693  0.94969695    -0.70480
O2024       O  0.32938535  0.89130739  0.99135566    -0.49160
C2025       C  0.32059609  0.90293568  0.96886552     0.75780
O2026       O  0.42910475  0.50277118  0.96392937    -0.65810
O2027       O  0.47974476  0.97635726  0.96853484    -0.53010
C2028       C  0.45346130  0.49984415  0.95637895     0.74160
Zr2029     Zr  0.40645173  0.97618796  0.99243546     2.77540
O2030       O  0.38482385  0.01792529  0.96811769    -0.96560
O2031       O  0.42125237  0.51493665  0.52666822    -0.77380
Zr2032     Zr  0.38797764  0.89684796  0.95045976     2.70070
O2033       O  0.35467027  0.89713939  0.90634916    -0.78630
O2034       O  0.38547697  0.84457566  0.93841095    -0.97710
Zr2035     Zr  0.46698478  0.92854175  0.98147947     2.21500
Zr2036     Zr  0.37638863  0.90526333  0.51945112     2.11130
O2037       O  0.37880281  0.93125672  0.98090875    -2.46400
O2038       O  0.41851913  0.94221483  0.96069976    -0.78420
O2039       O  0.40552851  0.95059434  0.53156770    -0.70620
O2040       O  0.43690692  0.88344603  0.96952045    -2.31580
O2041       O  0.45398359  0.96268963  0.51343570    -2.27780
O2042       O  0.38976933  0.87123314  0.98995229    -0.72380
H2043       H  0.42352682  0.87963175  0.55722579     0.79620
H2044       H  0.44401622  0.87149488  0.95682905     0.80710
H2045       H  0.36181653  0.93867596  0.96965455     0.82930
H2046       H  0.46692687  0.98040407  0.51731019     0.80540
H2047       H  0.43678926  0.81636973  0.96786530     0.43570
H2048       H  0.36436229  0.83812241  0.93613998     0.42540
H2049       H  0.35056289  0.91809024  0.90359159     0.42220
H2050       H  0.36802767  0.00932696  0.95401595     0.40160
H2051       H  0.43040368  0.50492611  0.54309916     0.43290
H2052       H  0.48973684  0.98605426  0.57574184     0.38070
H2053       H  0.99176428  0.89765793  0.58238930     0.44190
H2054       H  0.45628612  0.83633222  0.56209978     0.40600
H2055       H  0.36929210  0.52858133  0.98328135     0.45520
H2056       H  0.48534496  0.96769487  0.59997304     0.44250
H2057       H  0.47200205  0.81790547  0.54397913     0.44380
H2058       H  0.38871883  0.84382503  0.92008100     0.44740
O2059       O  0.01357440  0.93536681  0.80020047    -0.74130
O2060       O  0.02628548  0.93557028  0.76008938    -0.53040
C2061       C  0.03261290  0.93672799  0.78605834     0.79600
O2062       O  0.41025872  0.83195134  0.76337825    -0.58730
O2063       O  0.37381327  0.86073741  0.77110432    -0.51760
C2064       C  0.38503096  0.83471300  0.76826289     0.71610
O2065       O  0.99154101  0.85058447  0.74991184    -0.73290
O2066       O  0.00535573  0.88365896  0.72192729    -0.53850
C2067       C  0.00755141  0.85927186  0.73408714     0.77610
O2068       O  0.44213214  0.93541504  0.83195287    -0.58430
O2069       O  0.39310085  0.92151211  0.81702639    -0.51550
C2070       C  0.41664471  0.92757403  0.83587044     0.74210
Zr2071     Zr  0.46342655  0.94416831  0.79396247     2.54710
O2072       O  0.49998033  0.92460304  0.82999232    -0.79000
O2073       O  0.45950219  0.98900112  0.81921432    -0.92420
Zr2074     Zr  0.44731303  0.86626164  0.75691272     2.64680
O2075       O  0.47218034  0.84926275  0.80038414    -0.97370
O2076       O  0.44604724  0.81827236  0.73449630    -0.79430
O2077       O  0.47814828  0.90885710  0.76573426    -0.82790
O2078       O  0.43253788  0.90055805  0.78656246    -2.17500
O2079       O  0.38270264  0.00422079  0.74569695    -0.66180
O2080       O  0.36676897  0.97161346  0.77328108    -0.50750
C2081       C  0.36878989  0.99829719  0.76349452     0.72590
O2082       O  0.41526770  0.91244249  0.66301280    -0.59090
O2083       O  0.46441754  0.92595420  0.67392049    -0.51070
C2084       C  0.43932171  0.92047691  0.65684896     0.74390
O2085       O  0.34150235  0.89751926  0.70100261    -0.70480
O2086       O  0.33487073  0.90817988  0.74272340    -0.49160
C2087       C  0.32524678  0.90085561  0.71780558     0.75780
O2088       O  0.45442405  0.50566914  0.70644426    -0.65810
O2089       O  0.49132999  0.97447201  0.70735169    -0.53010
C2090       C  0.48008343  0.49933900  0.70287446     0.74160
Zr2091     Zr  0.41854368  0.98092991  0.72894020     2.77540
O2092       O  0.38433277  0.99203675  0.68736573    -0.96560
O2093       O  0.43229917  0.53210577  0.74601693    -0.77380
Zr2094     Zr  0.39327622  0.90144018  0.69857470     2.70070
O2095       O  0.35773739  0.90853732  0.65671888    -0.78630
O2096       O  0.38795619  0.84956852  0.68453683    -0.97710
Zr2097     Zr  0.47558077  0.92932110  0.72340632     2.21500
Zr2098     Zr  0.38482929  0.91814002  0.76803660     2.11130
O2099       O  0.38294984  0.94013925  0.72572102    -2.46400
O2100       O  0.42754912  0.94265920  0.70220694    -0.78420
O2101       O  0.41798632  0.96065540  0.77164827    -0.70620
O2102       O  0.44234419  0.88643747  0.71468226    -2.31580
O2103       O  0.46454272  0.96663950  0.75227549    -2.27780
O2104       O  0.39839626  0.88140053  0.74003735    -0.72380
H2105       H  0.43272013  0.89045223  0.80281476     0.79620
H2106       H  0.44768376  0.87286980  0.70209474     0.80710
H2107       H  0.36368116  0.94728568  0.71850893     0.82930
H2108       H  0.47783556  0.98389272  0.75375659     0.80540
H2109       H  0.43651486  0.82121975  0.71554901     0.43570
H2110       H  0.37670932  0.84011068  0.69651181     0.42540
H2111       H  0.35574586  0.93007494  0.65634973     0.42220
H2112       H  0.36463149  0.99174338  0.69157752     0.40160
H2113       H  0.43296155  0.53219756  0.76537402     0.43290
H2114       H  0.47196930  0.00400308  0.81292814     0.38070
H2115       H  0.99763485  0.92426088  0.84575124     0.44190
H2116       H  0.45616450  0.84023998  0.80781921     0.40600
H2117       H  0.39026111  0.51408348  0.68606048     0.45520
H2118       H  0.47027137  0.98556319  0.83772782     0.44250
H2119       H  0.48315103  0.83241791  0.79618578     0.44380
H2120       H  0.37387341  0.84873440  0.66683823     0.44740
O2121       O  0.24217691  0.71640262  0.58248491    -0.74130
O2122       O  0.24026455  0.67229779  0.60081160    -0.53040
C2123       C  0.22990211  0.69699464  0.59585600     0.79600
O2124       O  0.28674214  0.67103593  0.96474206    -0.58730
O2125       O  0.33477969  0.68625744  0.98132617    -0.51760
C2126       C  0.31273121  0.67843314  0.96202568     0.71610
O2127       O  0.21050174  0.65305496  0.99937564    -0.73290
O2128       O  0.20774105  0.66639506  0.54087224    -0.53850
C2129       C  0.19839252  0.66787473  0.51510422     0.77610
O2130       O  0.32948817  0.75343549  0.55283018    -0.58430
O2131       O  0.35854235  0.72716686  0.53151000    -0.51550
C2132       C  0.35109232  0.75126356  0.54098525     0.74210
Zr2133     Zr  0.29132156  0.72051197  0.56591092     2.54710
O2134       O  0.26798762  0.76531839  0.55036612    -0.79000
O2135       O  0.31009816  0.74656481  0.60893665    -0.92420
Zr2136     Zr  0.25878676  0.67234391  0.49810611     2.64680
O2137       O  0.24129441  0.71957326  0.98228645    -0.97370
O2138       O  0.22819511  0.65657340  0.95446913    -0.79430
O2139       O  0.25326179  0.68849376  0.54108413    -0.82790
O2140       O  0.29713123  0.70523514  0.52224554    -2.17500
O2141       O  0.38747594  0.64303059  0.58586471    -0.66180
O2142       O  0.38975803  0.67116709  0.55099895    -0.50750
C2143       C  0.39761021  0.64913973  0.56519529     0.72590
O2144       O  0.24967049  0.57421159  0.53085571    -0.59090
O2145       O  0.24045550  0.59565552  0.56773730    -0.51070
C2146       C  0.23254068  0.57919357  0.54677978     0.74390
O2147       O  0.34751465  0.59383374  0.51996120    -0.70480
O2148       O  0.36251667  0.63844596  0.50766885    -0.49160
C2149       C  0.36802446  0.61322009  0.51734849     0.75780
O2150       O  0.31459576  0.63850997  0.62978971    -0.65810
O2151       O  0.26435044  0.63649243  0.61530134    -0.53010
C2152       C  0.28847407  0.63599079  0.63372263     0.74160
Zr2153     Zr  0.33854942  0.65243705  0.59539995     2.77540
O2154       O  0.36294458  0.61728784  0.62669480    -0.96560
O2155       O  0.36649746  0.69197637  0.62490719    -0.77380
Zr2156     Zr  0.29745869  0.60068068  0.52848993     2.70070
O2157       O  0.31068312  0.55409891  0.54865851    -0.78630
O2158       O  0.28479158  0.57858658  0.48339416    -0.97710
Zr2159     Zr  0.25503968  0.64618026  0.56743268     2.21500
Zr2160     Zr  0.33942143  0.67649653  0.52763633     2.11130
O2161       O  0.33491402  0.63401719  0.55270933    -2.46400
O2162       O  0.29799842  0.61873980  0.57286606    -0.78420
O2163       O  0.33691797  0.69562770  0.57073037    -0.70620
O2164       O  0.25610662  0.62963236  0.52313863    -2.31580
O2165       O  0.29509463  0.67845344  0.59130870    -2.27780
O2166       O  0.30026769  0.64359122  0.50319447    -0.72380
H2167       H  0.29963443  0.72200290  0.51176692     0.79620
H2168       H  0.23896510  0.61778114  0.51381851     0.80710
H2169       H  0.35014804  0.62065881  0.55697365     0.82930
H2170       H  0.29331846  0.68489279  0.60883660     0.80540
H2171       H  0.23102339  0.63526577  0.95280453     0.43570
H2172       H  0.29864788  0.58891360  0.97413692     0.42540
H2173       H  0.32599081  0.55971411  0.56512328     0.42220
H2174       H  0.36727699  0.60101810  0.61531446     0.40160
H2175       H  0.38574271  0.69392535  0.61983974     0.43290
H2176       H  0.29334768  0.74527183  0.61777419     0.38070
H2177       H  0.27063329  0.76677228  0.53190760     0.44190
H2178       H  0.25902985  0.73219361  0.98161220     0.40600
H2179       H  0.38252291  0.62702214  0.63520649     0.45520
H2180       H  0.31183831  0.76751014  0.60451581     0.44250
H2181       H  0.23154392  0.71542483  0.96322674     0.44380
H2182       H  0.29197600  0.55851237  0.48548792     0.44740
O2183       O  0.28313167  0.75323257  0.83376548    -0.74130
O2184       O  0.25142610  0.71811058  0.84397952    -0.53040
C2185       C  0.26230251  0.74461620  0.84502843     0.79600
O2186       O  0.28614762  0.65523260  0.71380500    -0.58730
O2187       O  0.33655183  0.65903548  0.72517862    -0.51760
C2188       C  0.31151324  0.65291589  0.70852552     0.71610
O2189       O  0.21884888  0.68833175  0.75323496    -0.73290
O2190       O  0.21483759  0.69058510  0.79651810    -0.53850
C2191       C  0.20448181  0.69310366  0.77119969     0.77610
O2192       O  0.34719111  0.75525120  0.78790325    -0.58430
O2193       O  0.36871141  0.72070135  0.76671217    -0.51550
C2194       C  0.36442774  0.74852082  0.77344573     0.74210
Zr2195     Zr  0.31431798  0.72983407  0.80725763     2.54710
O2196       O  0.29205892  0.77174016  0.78389089    -0.79000
O2197       O  0.35022929  0.75787459  0.84239706    -0.92420
Zr2198     Zr  0.26719743  0.67622338  0.74952483     2.64680
O2199       O  0.26282966  0.71515982  0.71814182    -0.97370
O2200       O  0.22789698  0.64855401  0.71741929    -0.79430
O2201       O  0.26829078  0.70627393  0.78841669    -0.82790
O2202       O  0.31272442  0.70251612  0.76602340    -2.17500
O2203       O  0.39757364  0.65864649  0.83689062    -0.66180
O2204       O  0.40058010  0.66160881  0.79341509    -0.50750
C2205       C  0.41243965  0.65883585  0.81825542     0.72590
O2206       O  0.23878756  0.59753216  0.80120303    -0.59090
O2207       O  0.22517194  0.63712353  0.82254443    -0.51070
C2208       C  0.21990630  0.61162836  0.81107192     0.74390
O2209       O  0.32399957  0.57791693  0.78021966    -0.70480
O2210       O  0.35767493  0.60961606  0.76705790    -0.49160
C2211       C  0.34707860  0.58276310  0.77121265     0.75780
O2212       O  0.32383360  0.66405071  0.88346850    -0.65810
O2213       O  0.27346044  0.66574933  0.86934389    -0.53010
C2214       C  0.29761037  0.66489952  0.88740290     0.74160
Zr2215     Zr  0.34667960  0.66172498  0.84596415     2.77540
O2216       O  0.36282742  0.61718514  0.86874274    -0.96560
O2217       O  0.38008746  0.69221177  0.88095342    -0.77380
Zr2218     Zr  0.28948535  0.60876567  0.79332940     2.70070
O2219       O  0.29690160  0.57001779  0.82541986    -0.78630
O2220       O  0.26340765  0.57819588  0.75454369    -0.97710
Zr2221     Zr  0.26228775  0.67431739  0.82221648     2.21500
Zr2222     Zr  0.34870966  0.66586946  0.77346442     2.11130
O2223       O  0.33854739  0.63311481  0.80669989    -2.46400
O2224       O  0.29766562  0.63767622  0.83312991    -0.78420
O2225       O  0.35247440  0.69542205  0.81354199    -0.70620
O2226       O  0.25616056  0.64561669  0.78193819    -2.31580
O2227       O  0.31006996  0.69743716  0.84005097    -2.27780
O2228       O  0.30115605  0.63965416  0.75985620    -0.72380
H2229       H  0.31542224  0.71549477  0.75217628     0.79620
H2230       H  0.23607656  0.63830811  0.77432160     0.80710
H2231       H  0.35328424  0.61885279  0.81127371     0.82930
H2232       H  0.31108965  0.70849357  0.85652721     0.80540
H2233       H  0.23244827  0.62775149  0.72042327     0.43570
H2234       H  0.27433887  0.58224918  0.74054632     0.42540
H2235       H  0.31753963  0.57388803  0.83586588     0.42220
H2236       H  0.37715927  0.60932746  0.85924666     0.40160
H2237       H  0.38575334  0.70957059  0.87166680     0.43290
H2238       H  0.34500063  0.75240238  0.85926438     0.38070
H2239       H  0.28121329  0.76340749  0.76615397     0.44190
H2240       H  0.27941477  0.71320112  0.70930014     0.40600
H2241       H  0.37506271  0.62437788  0.88637514     0.45520
H2242       H  0.34478391  0.77852946  0.84010374     0.44250
H2243       H  0.24500152  0.70868286  0.70415049     0.44380
H2244       H  0.26757677  0.55772963  0.75949043     0.44740
O2245       O  0.07489230  0.00237523  0.58436745    -0.74130
O2246       O  0.05713822  0.99303579  0.61972964    -0.53040
C2247       C  0.05953364  0.98569040  0.59587562     0.79600
O2248       O  0.16389270  0.56796599  0.57435598    -0.58730
O2249       O  0.14461528  0.61147054  0.56021210    -0.51760
C2250       C  0.16181365  0.59004972  0.55937210     0.71610
O2251       O  0.14869854  0.50598921  0.63466541    -0.73290
O2252       O  0.11804098  0.00328988  0.66173556    -0.53850
C2253       C  0.14083946  0.99534742  0.65405032     0.77610
O2254       O  0.06299493  0.57088985  0.52922998    -0.58430
O2255       O  0.08557335  0.61693412  0.53590682    -0.51550
C2256       C  0.07338632  0.59433982  0.52093184     0.74210
Zr2257     Zr  0.05672813  0.55116039  0.57003585     2.54710
O2258       O  0.03686938  0.51920922  0.53046803    -0.79000
O2259       O  0.00276337  0.54967078  0.56126082    -0.92420
Zr2260     Zr  0.14235789  0.55091137  0.60945936     2.64680
O2261       O  0.15546177  0.50893284  0.58521233    -0.97370
O2262       O  0.19308349  0.56342590  0.63402313    -0.79430
O2263       O  0.09392983  0.53075649  0.60276576    -0.82790
O2264       O  0.10565128  0.57051141  0.57471842    -2.17500
O2265       O  0.04546034  0.66017243  0.61144049    -0.66180
O2266       O  0.07942361  0.66771919  0.58594408    -0.50750
C2267       C  0.06097955  0.67679135  0.59941066     0.72590
O2268       O  0.10731218  0.59508311  0.69760384    -0.59090
O2269       O  0.09084215  0.54657188  0.69092608    -0.51070
C2270       C  0.09616561  0.57079808  0.70500275     0.74390
O2271       O  0.16222935  0.64787703  0.64204429    -0.70480
O2272       O  0.14506835  0.65976691  0.59856007    -0.49160
C2273       C  0.16450342  0.66238922  0.62088135     0.75780
O2274       O  0.51344071  0.57965118  0.64910279    -0.65810
O2275       O  0.03683624  0.53782511  0.66026439    -0.53010
C2276       C  0.01671578  0.55550464  0.66177774     0.74160
Zr2277     Zr  0.04248023  0.60864044  0.62193163     2.77540
O2278       O  0.02394247  0.63811463  0.65399441    -0.96560
O2279       O  0.49461299  0.60905426  0.58902482    -0.77380
Zr2280     Zr  0.12884309  0.61123243  0.65976942     2.70070
O2281       O  0.12786814  0.65720015  0.68463483    -0.78630
O2282       O  0.17410594  0.60026061  0.69146282    -0.97710
Zr2283     Zr  0.08004440  0.53817770  0.64312666     2.21500
Zr2284     Zr  0.10535770  0.62181349  0.58431245     2.11130
O2285       O  0.09223405  0.62988009  0.62641223    -2.46400
O2286       O  0.08020314  0.58917472  0.65398893    -0.78420
O2287       O  0.05539916  0.60219834  0.57973836    -0.70620
O2288       O  0.12953170  0.55990627  0.65052007    -2.31580
O2289       O  0.04172130  0.55774281  0.61036400    -2.27780
O2290       O  0.14205549  0.60195440  0.61881080    -0.72380
H2291       H  0.11059430  0.56601169  0.55797277     0.79620
H2292       H  0.14287375  0.55138864  0.66521502     0.80710
H2293       H  0.09474263  0.65026626  0.63238110     0.82930
H2294       H  0.02279258  0.54759988  0.60964049     0.80540
H2295       H  0.19461549  0.55447298  0.65155888     0.43570
H2296       H  0.19008105  0.60687392  0.68281159     0.42540
H2297       H  0.10689606  0.65849572  0.68533138     0.42220
H2298       H  0.04056826  0.65236650  0.66227561     0.40160
H2299       H  0.48175730  0.59420485  0.59533386     0.43290
H2300       H  0.49588055  0.52962952  0.55269047     0.38070
H2301       H  0.05789573  0.01157654  0.52533343     0.44190
H2302       H  0.14503881  0.51107899  0.56634286     0.40600
H2303       H  0.51102904  0.65074365  0.64478114     0.45520
H2304       H  0.99707725  0.56503224  0.54810968     0.44250
H2305       H  0.17669894  0.51274054  0.58559560     0.44380
H2306       H  0.17558897  0.61460801  0.70657036     0.44740
O2307       O  0.03339706  0.98471190  0.82377938    -0.74130
O2308       O  0.06364062  0.98163836  0.86434115    -0.53040
C2309       C  0.05388948  0.97217183  0.83968905     0.79600
O2310       O  0.14448063  0.58409076  0.83120678    -0.58730
O2311       O  0.11664736  0.62195738  0.81370538    -0.51760
C2312       C  0.14036438  0.60700458  0.81752838     0.71610
O2313       O  0.13086504  0.01094740  0.88513694    -0.73290
O2314       O  0.09792237  0.00240804  0.91119706    -0.53850
C2315       C  0.12143425  0.99750132  0.90352241     0.77610
O2316       O  0.05404693  0.56267306  0.77092306    -0.58430
O2317       O  0.06191684  0.61226308  0.77811608    -0.51550
C2318       C  0.06128512  0.58859208  0.76389749     0.74210
Zr2319     Zr  0.03830722  0.54060283  0.80935900     2.54710
O2320       O  0.04038339  0.50561752  0.77349022    -0.79000
O2321       O  0.98890616  0.54702332  0.78254597    -0.92420
Zr2322     Zr  0.11955591  0.55648455  0.85812223     2.64680
O2323       O  0.13889642  0.52041971  0.83192383    -0.97370
O2324       O  0.16718008  0.57287250  0.88719042    -0.79430
O2325       O  0.07482384  0.52935831  0.84768891    -0.82790
O2326       O  0.08341780  0.56893636  0.81973886    -2.17500
O2327       O  0.99886589  0.63661721  0.84791194    -0.66180
O2328       O  0.01668773  0.63960351  0.81110186    -0.50750
C2329       C  0.99599021  0.64401952  0.82402974     0.72590
O2330       O  0.07661616  0.59136915  0.94048709    -0.59090
O2331       O  0.06338171  0.54224024  0.93486408    -0.51070
C2332       C  0.06920403  0.56672013  0.94898019     0.74390
O2333       O  0.09947207  0.65773529  0.88697584    -0.70480
O2334       O  0.08574323  0.66439488  0.84200656    -0.49160
C2335       C  0.09621981  0.67321828  0.86615811     0.75780
O2336       O  0.48899366  0.55019274  0.89437591    -0.65810
O2337       O  0.01136039  0.51512217  0.89976565    -0.53010
C2338       C  0.49569498  0.52516346  0.90475964     0.74160
Zr2339     Zr  0.00617553  0.58743225  0.86047948     2.77540
O2340       O  0.98066732  0.61152873  0.89070861    -0.96560
O2341       O  0.45977831  0.56904211  0.83535784    -0.77380
Zr2342     Zr  0.08855506  0.60945040  0.90138270     2.70070
O2343       O  0.08313809  0.64837685  0.93290678    -0.78630
O2344       O  0.14013440  0.60987680  0.92581626    -0.97710
Zr2345     Zr  0.05672124  0.52952369  0.88681945     2.21500
Zr2346     Zr  0.06715849  0.61683604  0.82575744     2.11130
O2347       O  0.04957803  0.62058102  0.86596650    -2.46400
O2348       O  0.04520460  0.57791956  0.89601884    -0.78420
O2349       O  0.02252110  0.58657088  0.81941840    -0.70620
O2350       O  0.10116007  0.56078958  0.89663515    -2.31580
O2351       O  0.01842300  0.53991324  0.84882039    -2.27780
O2352       O  0.10651720  0.60554441  0.86285585    -0.72380
H2353       H  0.09383209  0.56751128  0.80570328     0.79620
H2354       H  0.11517367  0.55552291  0.91252860     0.80710
H2355       H  0.04620284  0.64073049  0.87002421     0.82930
H2356       H  0.50651686  0.52138518  0.85340953     0.80540
H2357       H  0.16890635  0.56097073  0.90322200     0.43570
H2358       H  0.14970007  0.62756292  0.91984782     0.42540
H2359       H  0.06219210  0.65323618  0.92708356     0.42220
H2360       H  0.99154863  0.63086372  0.89590915     0.40160
H2361       H  0.45838768  0.58079831  0.81927569     0.43290
H2362       H  0.49405363  0.53363732  0.76602147     0.38070
H2363       H  0.06126091  0.99746607  0.77838131     0.44190
H2364       H  0.12984499  0.52443897  0.81308445     0.40600
H2365       H  0.46865992  0.61493783  0.88581690     0.45520
H2366       H  0.98920469  0.56747874  0.77653461     0.44250
H2367       H  0.16008672  0.52667959  0.83440949     0.44380
H2368       H  0.13977383  0.61488495  0.94456041     0.44740
C2369       C  0.08705503  0.57007530  0.73063130    -0.15270
C2370       C  0.07187720  0.59132165  0.73900192    -0.30450
H2371       H  0.08965436  0.54974090  0.74128143     0.13750
H2372       H  0.06899183  0.61168401  0.72843759     0.14330
C2373       C  0.06717807  0.56751623  0.97694734    -0.15270
C2374       C  0.07257668  0.59386861  0.49231889    -0.30450
H2375       H  0.06223740  0.54683331  0.98548221     0.13750
H2376       H  0.07831663  0.61439505  0.48394784     0.14330
C2377       C  0.44505664  0.65448102  0.82677459    -0.15270
C2378       C  0.46502249  0.65060768  0.81106798    -0.30450
H2379       H  0.45247674  0.65202022  0.84815793     0.13750
H2380       H  0.45852446  0.65335507  0.78967851     0.14330
C2381       C  0.16652057  0.61684181  0.80757910    -0.15270
C2382       C  0.18954657  0.59901182  0.80882126    -0.30450
H2383       H  0.16910097  0.63998348  0.80345633     0.13750
H2384       H  0.18669060  0.57549595  0.81125538     0.14330
C2385       C  0.29480690  0.66600430  0.91479535    -0.15270
C2386       C  0.31712889  0.67656213  0.93493359    -0.30450
H2387       H  0.27312907  0.65974269  0.91812749     0.13750
H2388       H  0.33854770  0.68361119  0.93145601     0.14330
C2389       C  0.31190614  0.64323234  0.68126998    -0.15270
C2390       C  0.28699920  0.63627557  0.66198600    -0.30450
H2391       H  0.33347869  0.64432713  0.67651342     0.13750
H2392       H  0.26538874  0.63540097  0.66665870     0.14330
C2393       C  0.41300713  0.62605298  0.55371724    -0.15270
C2394       C  0.39911319  0.60909419  0.53162178    -0.30450
H2395       H  0.43457345  0.62032933  0.56495171     0.13750
H2396       H  0.40997089  0.59029868  0.52586743     0.14330
C2397       C  0.18205831  0.59101139  0.54109089    -0.15270
C2398       C  0.20105707  0.56944458  0.54036923    -0.30450
H2399       H  0.18731738  0.61262646  0.53457548     0.13750
H2400       H  0.19588669  0.54738567  0.54614377     0.14330
C2401       C  0.06344361  0.93899472  0.80217121    -0.15270
C2402       C  0.07090511  0.95025214  0.82792156    -0.30450
H2403       H  0.07995229  0.92806001  0.79428712     0.13750
H2404       H  0.09296769  0.94673176  0.83948545     0.14330
C2405       C  0.49913905  0.51980195  0.69098216    -0.15270
C2406       C  0.49246930  0.54294450  0.67492186    -0.30450
H2407       H  0.52164921  0.51282590  0.69456330     0.13750
H2408       H  0.97831750  0.55842823  0.68180254     0.14330
C2409       C  0.36916168  0.80501033  0.77073389    -0.15270
C2410       C  0.37890879  0.77698638  0.76557413    -0.30450
H2411       H  0.34928320  0.80635315  0.77818514     0.13750
H2412       H  0.39813915  0.77535234  0.75721164     0.14330
C2413       C  0.35398017  0.52599287  0.77247514    -0.15270
C2414       C  0.36174253  0.55463071  0.76573090    -0.30450
H2415       H  0.33887550  0.02284519  0.78393798     0.13750
H2416       H  0.37938368  0.55766480  0.75533377     0.14330
C2417       C  0.43871324  0.92712549  0.88498652    -0.15270
C2418       C  0.41470910  0.92426989  0.86396499    -0.30450
H2419       H  0.46046833  0.93317156  0.88176278     0.13750
H2420       H  0.39299024  0.91828698  0.86729640     0.14330
C2421       C  0.40851433  0.91830401  0.61150953    -0.15270
C2422       C  0.43541610  0.92545701  0.62815571    -0.30450
H2423       H  0.39132170  0.90583888  0.61832967     0.13750
H2424       H  0.45306404  0.93670731  0.62109308     0.14330
C2425       C  0.04417400  0.95673213  0.55313782    -0.15270
C2426       C  0.04231408  0.96079748  0.57913242    -0.30850
H2427       H  0.06341100  0.96559161  0.54677151     0.13750
H2428       H  0.02399165  0.95049123  0.58590083     0.14330
C2429       C  0.47625113  0.50895154  0.91915500    -0.15270
C2430       C  0.46236751  0.52029869  0.93711466    -0.30450
H2431       H  0.47771327  0.48519794  0.91814311     0.13750
H2432       H  0.50002010  0.02759350  0.95560788     0.14330
C2433       C  0.36066555  0.80554074  0.53961367    -0.15270
C2434       C  0.36893225  0.77801944  0.53699137    -0.30450
H2435       H  0.34042518  0.80892231  0.54607861     0.13750
H2436       H  0.38863235  0.77470573  0.52962167     0.14330
C2437       C  0.30470744  0.95156558  0.98179928    -0.15270
C2438       C  0.29838909  0.92546061  0.96733658    -0.30450
H2439       H  0.28871297  0.96834812  0.97805425     0.13750
H2440       H  0.27754219  0.92212073  0.95256924     0.14330
C2441       C  0.17616709  0.69629082  0.97568665    -0.15270
C2442       C  0.17963360  0.69095104  0.00233333    -0.30450
H2443       H  0.18052953  0.67932208  0.96217197     0.13750
H2444       H  0.17458036  0.70764638  0.01577850     0.14330
C2445       C  0.25466477  0.76753923  0.88647256    -0.15270
C2446       C  0.24893130  0.76630801  0.85960727    -0.30450
H2447       H  0.27237035  0.75535854  0.89802914     0.13750
H2448       H  0.23047088  0.77769018  0.84819744     0.14330
C2449       C  0.22521276  0.90319332  0.01190549    -0.15270
C2450       C  0.21050038  0.88888217  0.02838948    -0.30450
H2451       H  0.24606723  0.91540363  0.02056072     0.13750
H2452       H  0.21995694  0.89007706  0.04976799     0.14330
C2453       C  0.03255260  0.85533878  0.98457378    -0.15270
C2454       C  0.05505825  0.87345023  0.98046708    -0.30450
H2455       H  0.03335846  0.83157248  0.98304206     0.13750
H2456       H  0.05471582  0.89712964  0.98349464     0.14330
C2457       C  0.08815150  0.71625487  0.88842070    -0.15270
C2458       C  0.10163548  0.70400758  0.87110195    -0.30450
H2459       H  0.07335072  0.70332981  0.89787256     0.13750
H2460       H  0.11529161  0.71645636  0.86025252     0.14330
C2461       C  0.13696401  0.95017260  0.89683950    -0.15270
C2462       C  0.13599457  0.97198722  0.91428500    -0.30450
H2463       H  0.13367521  0.95428279  0.87568515     0.13750
H2464       H  0.13770000  0.96791695  0.93527152     0.14330
C2465       C  0.13859089  0.79598780  0.79464316    -0.15270
C2466       C  0.15309971  0.78010712  0.81505781    -0.30450
H2467       H  0.12259917  0.81109252  0.79841503     0.13750
H2468       H  0.16840866  0.76414744  0.81149200     0.14330
C2469       C  0.20378613  0.81447775  0.58621561    -0.15270
C2470       C  0.22660271  0.80277514  0.60329265    -0.30450
H2471       H  0.20245974  0.81392861  0.56491472     0.13750
H2472       H  0.24393907  0.79272674  0.59591939     0.14330
C2473       C  0.17508028  0.70469769  0.76115017    -0.15270
C2474       C  0.16225485  0.70061868  0.73488680    -0.30450
H2475       H  0.16967857  0.72336747  0.77232086     0.13750
H2476       H  0.16833594  0.68172067  0.72445192     0.14330
C2477       C  0.19999067  0.69833227  0.60263878    -0.15270
C2478       C  0.19337232  0.67980589  0.62155721    -0.30450
H2479       H  0.18225968  0.70737210  0.58809207     0.13750
H2480       H  0.21192527  0.67259092  0.63652607     0.14330
C2481       C  0.27394354  0.89481134  0.72262571    -0.15270
C2482       C  0.29341716  0.89512778  0.70711813    -0.30450
H2483       H  0.28120630  0.90057901  0.74384668     0.13750
H2484       H  0.28624607  0.88811404  0.68614123     0.14330
C2485       C  0.03016694  0.83997706  0.72937614    -0.15270
C2486       C  0.03424659  0.83694296  0.70466871    -0.30450
H2487       H  0.04535884  0.83120724  0.74629165     0.13750
H2488       H  0.01903890  0.84676730  0.68836523     0.14330
C2489       C  0.06185318  0.70869107  0.60569198    -0.15270
C2490       C  0.06144339  0.71864279  0.63081085    -0.30450
H2491       H  0.07057750  0.72306991  0.59249969     0.13750
H2492       H  0.05443153  0.70369636  0.64454814     0.14330
C2493       C  0.15401902  0.96944017  0.66649228    -0.15270
C2494       C  0.16919669  0.95150424  0.65432499    -0.30450
H2495       H  0.14600718  0.96202849  0.68358874     0.13750
H2496       H  0.17752147  0.95855275  0.63731530     0.14330
O2497       O  0.64266390  0.40773516  0.16819280    -0.74130
O2498       O  0.68323516  0.40144544  0.15144269    -0.53040
C2499       C  0.66377803  0.41727451  0.15773408     0.79600
O2500       O  0.66926248  0.31141762  0.26712457    -0.58730
O2501       O  0.62667494  0.28362623  0.24825791    -0.51760
C2502       C  0.64609771  0.29518870  0.26856950     0.71610
O2503       O  0.73267274  0.36700035  0.23031214    -0.73290
O2504       O  0.73427289  0.37603230  0.18715929    -0.53850
C2505       C  0.74503686  0.37814370  0.21255103     0.77610
O2506       O  0.57932738  0.34803417  0.20151196    -0.58430
O2507       O  0.57565769  0.29889404  0.20861785    -0.51550
C2508       C  0.56687975  0.32500942  0.20928600     0.74210
Zr2509     Zr  0.61991104  0.36332699  0.18157965     2.54710
O2510       O  0.61571798  0.40237177  0.21347210    -0.79000
O2511       O  0.57772237  0.38180793  0.15036083    -0.92420
Zr2512     Zr  0.68959447  0.33409430  0.23179641     2.64680
O2513       O  0.68822311  0.37550871  0.26228931    -0.97370
O2514       O  0.73106436  0.31309848  0.26190259    -0.79430
O2515       O  0.67209104  0.36605507  0.19679261    -0.82790
O2516       O  0.63725864  0.33194203  0.21674926    -2.17500
O2517       O  0.58774057  0.26063158  0.12681896    -0.66180
O2518       O  0.58536360  0.24814724  0.16884472    -0.50750
C2519       C  0.57822892  0.24415655  0.14307652     0.72590
O2520       O  0.71318664  0.27886164  0.13958273    -0.59090
O2521       O  0.73022301  0.32648589  0.14542928    -0.51070
C2522       C  0.72570692  0.30194367  0.13191380     0.74390
O2523       O  0.67895000  0.23172251  0.20667115    -0.70480
O2524       O  0.63454867  0.23634798  0.21754118    -0.49160
C2525       C  0.65827393  0.22320349  0.21821672     0.75780
O2526       O  0.65795185  0.30529659  0.09982284    -0.65810
O2527       O  0.68266106  0.34940914  0.11136648    -0.53010
C2528       C  0.67798264  0.32504011  0.09762638     0.74160
Zr2529     Zr  0.62214723  0.30190710  0.12805697     2.77540
O2530       O  0.60109850  0.27794786  0.08432927    -0.96560
O2531       O  0.58608852  0.33540525  0.10572525    -0.77380
Zr2532     Zr  0.69301626  0.27100005  0.17918498     2.70070
O2533       O  0.70144763  0.22216920  0.16428222    -0.78630
O2534       O  0.74490097  0.27339185  0.20261728    -0.97710
Zr2535     Zr  0.69074056  0.35048067  0.15962790     2.21500
Zr2536     Zr  0.62094666  0.28294292  0.19962772     2.11130
O2537       O  0.64065224  0.26823864  0.16263236    -2.46400
O2538       O  0.67335109  0.30193602  0.14456616    -0.78420
O2539       O  0.60199799  0.31513412  0.16465856    -0.70620
O2540       O  0.70959268  0.31945726  0.19543334    -2.31580
O2541       O  0.63821848  0.35065130  0.14375872    -2.27780
O2542       O  0.67350088  0.28538552  0.21556379    -0.72380
H2543       H  0.62884529  0.33722263  0.23156018     0.79620
H2544       H  0.73087659  0.32173613  0.20008153     0.80710
H2545       H  0.63532883  0.24793196  0.15687861     0.82930
H2546       H  0.63305602  0.36447316  0.12977124     0.80540
H2547       H  0.74651826  0.31209420  0.25161375     0.43570
H2548       H  0.74507732  0.26422569  0.21983017     0.42540
H2549       H  0.68168430  0.21170578  0.16116520     0.42220
H2550       H  0.61512434  0.26300326  0.08209462     0.40160
H2551       H  0.56724005  0.32822156  0.10981029     0.43290
H2552       H  0.58627662  0.39189478  0.13685391     0.38070
H2553       H  0.63602148  0.40598985  0.22472416     0.44190
H2554       H  0.66789295  0.37415270  0.26514559     0.40600
H2555       H  0.60311683  0.29294553  0.07119743     0.45520
H2556       H  0.57125997  0.39793186  0.16053475     0.44250
H2557       H  0.70092779  0.37020889  0.27954291     0.44380
H2558       H  0.75432872  0.25984818  0.19225947     0.44740
O2559       O  0.57416668  0.33574433  0.45881999    -0.74130
O2560       O  0.60056508  0.37984086  0.46789952    -0.53040
C2561       C  0.57819299  0.36214181  0.46856908     0.79600
O2562       O  0.67547313  0.24840624  0.48352361    -0.58730
O2563       O  0.67178843  0.23157549  0.44046388    -0.51760
C2564       C  0.67447402  0.22767265  0.46594298     0.71610
O2565       O  0.68794997  0.34114969  0.01933146    -0.73290
O2566       O  0.66100012  0.38038071  0.50300299    -0.53850
C2567       C  0.68408306  0.36908385  0.01810462     0.77610
O2568       O  0.58588658  0.25655122  0.41515375    -0.58430
O2569       O  0.61629429  0.25938967  0.38750050    -0.51550
C2570       C  0.59710590  0.24547556  0.39722395     0.74210
Zr2571     Zr  0.59655902  0.30642706  0.43066083     2.54710
O2572       O  0.55980550  0.27884308  0.44858733    -0.79000
O2573       O  0.55584480  0.31769030  0.39386431    -0.92420
Zr2574     Zr  0.67175731  0.30093714  0.48480184     2.64680
O2575       O  0.63888767  0.28938482  0.51407925    -0.97370
O2576       O  0.71492424  0.28716028  0.51754194    -0.79430
O2577       O  0.62928096  0.32765703  0.46981909    -0.82790
O2578       O  0.63844727  0.27863127  0.44657427    -2.17500
O2579       O  0.64309698  0.31292558  0.34739294    -0.66180
O2580       O  0.66158583  0.26971997  0.36333790    -0.50750
C2581       C  0.65253932  0.28733155  0.34411571     0.72590
O2582       O  0.73051513  0.38544087  0.47014688    -0.59090
O2583       O  0.68844013  0.40809164  0.47047514    -0.51070
C2584       C  0.71456966  0.40134614  0.48185542     0.74390
O2585       O  0.74091299  0.31019242  0.41139919    -0.70480
O2586       O  0.71142654  0.26789370  0.39926995    -0.49160
C2587       C  0.73496743  0.28441066  0.39972870     0.75780
O2588       O  0.62754015  0.39828689  0.38557222    -0.65810
O2589       O  0.63414903  0.41405868  0.42921621    -0.53010
C2590       C  0.62812522  0.41780503  0.40405000     0.74160
Zr2591     Zr  0.63865285  0.34762467  0.38294751     2.77540
O2592       O  0.66110018  0.37473349  0.35182526    -0.96560
O2593       O  0.59029917  0.34671614  0.35191912    -0.77380
Zr2594     Zr  0.71587932  0.34442860  0.43548033     2.70070
O2595       O  0.73167082  0.38117733  0.40741695    -0.78630
O2596       O  0.76603426  0.33976775  0.46181791    -0.97710
Zr2597     Zr  0.64735521  0.37254335  0.45541701     2.21500
Zr2598     Zr  0.66517656  0.27561817  0.41195790     2.11130
O2599       O  0.68170988  0.32190105  0.39844909    -2.46400
O2600       O  0.67302390  0.37128051  0.42017188    -0.78420
O2601       O  0.62217903  0.30210134  0.39607232    -0.70620
O2602       O  0.68862599  0.34312526  0.46791698    -2.31580
O2603       O  0.61218875  0.35240418  0.41708030    -2.27780
O2604       O  0.69916780  0.29813795  0.45023669    -0.72380
H2605       H  0.63071744  0.25975220  0.45076836     0.79620
H2606       H  0.70451237  0.34873785  0.48271260     0.80710
H2607       H  0.69121110  0.31989608  0.38378806     0.82930
H2608       H  0.59565073  0.36465925  0.41192865     0.80540
H2609       H  0.73042387  0.30007986  0.01513287     0.43570
H2610       H  0.76769808  0.31838237  0.46426189     0.42540
H2611       H  0.72683532  0.37164009  0.38930016     0.42220
H2612       H  0.67798917  0.36329301  0.34976576     0.40160
H2613       H  0.58412020  0.32555634  0.34846556     0.43290
H2614       H  0.54224389  0.32823998  0.40248281     0.38070
H2615       H  0.57100306  0.27230940  0.46603004     0.44190
H2616       H  0.62629342  0.27211341  0.50513680     0.40600
H2617       H  0.64658959  0.37189930  0.33440942     0.45520
H2618       H  0.54524287  0.29840586  0.38778366     0.44250
H2619       H  0.65150020  0.28198460  0.03062476     0.44380
H2620       H  0.77899498  0.34485393  0.44963560     0.44740
O2621       O  0.49026677  0.44128898  0.03121594    -0.74130
O2622       O  0.51644306  0.44616837  0.00361962    -0.53040
C2623       C  0.51569938  0.44728063  0.02805794     0.79600
O2624       O  0.90128946  0.32864626  0.02594941    -0.58730
O2625       O  0.86420292  0.35641727  0.03312633    -0.51760
C2626       C  0.87657875  0.33188815  0.03282668     0.71610
O2627       O  0.48612181  0.35282629  0.49772216    -0.73290
O2628       O  0.50084426  0.39389685  0.47862230    -0.53850
C2629       C  0.50444816  0.36798589  0.48715342     0.77610
O2630       O  0.91711171  0.44436751  0.07801064    -0.58430
O2631       O  0.88231222  0.40751675  0.06895296    -0.51550
C2632       C  0.90203354  0.42359430  0.08553900     0.74210
Zr2633     Zr  0.95381125  0.43553056  0.05350044     2.54710
O2634       O  0.98164288  0.40978732  0.09115967    -0.79000
O2635       O  0.97502680  0.47834558  0.08235110    -0.92420
Zr2636     Zr  0.93926270  0.35897475  0.01076516     2.64680
O2637       O  0.96914391  0.33814202  0.05043980    -0.97370
O2638       O  0.93453850  0.31207934  0.48663496    -0.79430
O2639       O  0.96834499  0.40362147  0.02199374    -0.82790
O2640       O  0.92462216  0.39056111  0.04258266    -2.17500
O2641       O  0.85249086  0.47752117  0.99137041    -0.66180
O2642       O  0.84328162  0.44399466  0.02052207    -0.50750
C2643       C  0.83471562  0.45949518  0.00012281     0.72590
O2644       O  0.90991490  0.41205371  0.41545023    -0.59090
O2645       O  0.95841037  0.42681504  0.43180005    -0.51070
C2646       C  0.93527213  0.42135699  0.41245468     0.74390
O2647       O  0.83423155  0.40053195  0.45038727    -0.70480
O2648       O  0.82974172  0.39143745  0.49220738    -0.49160
C2649       C  0.82073697  0.40281594  0.46962706     0.75780
O2650       O  0.92831773  0.00139427  0.46200938    -0.65810
O2651       O  0.97826580  0.47687196  0.46567544    -0.53010
C2652       C  0.95351896  0.99926428  0.45566451     0.74160
Zr2653     Zr  0.90630227  0.47636164  0.49252696     2.77540
O2654       O  0.88398882  0.51745199  0.46762648    -0.96560
O2655       O  0.92109993  0.01302095  0.02908450    -0.77380
Zr2656     Zr  0.88794889  0.39677816  0.45095708     2.70070
O2657       O  0.85439499  0.39659699  0.40692306    -0.78630
O2658       O  0.88540813  0.34436832  0.43942959    -0.97710
Zr2659     Zr  0.96714586  0.42943299  0.48100949     2.21500
Zr2660     Zr  0.87685924  0.40557369  0.02101362     2.11130
O2661       O  0.87879394  0.43134570  0.48125998    -2.46400
O2662       O  0.91825097  0.44235998  0.46076635    -0.78420
O2663       O  0.90628611  0.45084480  0.03264921    -0.70620
O2664       O  0.93721381  0.38405785  0.46971272    -2.31580
O2665       O  0.95439072  0.46241001  0.01370594    -2.27780
O2666       O  0.89039162  0.37141655  0.49061094    -0.72380
H2667       H  0.92428523  0.37991287  0.05848463     0.79620
H2668       H  0.94419221  0.37200650  0.45700522     0.80710
H2669       H  0.86172422  0.43867766  0.47004998     0.82930
H2670       H  0.96729587  0.48016940  0.01730117     0.80540
H2671       H  0.93660411  0.31675649  0.46847436     0.43570
H2672       H  0.86428781  0.33796288  0.43720403     0.42540
H2673       H  0.84998330  0.41746976  0.40410115     0.42220
H2674       H  0.86717544  0.50849968  0.45374210     0.40160
H2675       H  0.90310388  0.01564702  0.03582342     0.43290
H2676       H  0.99048859  0.48721850  0.07421886     0.38070
H2677       H  0.49200998  0.39652308  0.08244677     0.44190
H2678       H  0.95584549  0.33584584  0.06280605     0.40600
H2679       H  0.86992830  0.02956229  0.48658100     0.45520
H2680       H  0.98583810  0.47047554  0.09934662     0.44250
H2681       H  0.97182531  0.31775714  0.04467487     0.44380
H2682       H  0.88865420  0.34336717  0.42110608     0.44740
O2683       O  0.51495215  0.43744697  0.29836774    -0.74130
O2684       O  0.52619838  0.44103248  0.25778658    -0.53040
C2685       C  0.53330655  0.44070204  0.28362746     0.79600
O2686       O  0.90986911  0.33202195  0.26377050    -0.58730
O2687       O  0.87340900  0.36094122  0.27115542    -0.51760
C2688       C  0.88459368  0.33487096  0.26853717     0.71610
O2689       O  0.49531423  0.35665853  0.24706605    -0.73290
O2690       O  0.50947180  0.39288965  0.22198430    -0.53850
C2691       C  0.51292286  0.36865266  0.23391672     0.77610
O2692       O  0.94084934  0.43355547  0.33197467    -0.58430
O2693       O  0.89164427  0.42116155  0.31664327    -0.51550
C2694       C  0.91515600  0.42643574  0.33566432     0.74210
Zr2695     Zr  0.96335980  0.44348265  0.29510312     2.54710
O2696       O  0.99509853  0.44720751  0.34007251    -0.79000
O2697       O  0.96083747  0.49556904  0.30429732    -0.92420
Zr2698     Zr  0.94717763  0.36625917  0.25752113     2.64680
O2699       O  0.97179865  0.34865006  0.30082545    -0.97370
O2700       O  0.94498562  0.31879245  0.23399526    -0.79430
O2701       O  0.97870165  0.40846676  0.26714620    -0.82790
O2702       O  0.93204859  0.40002897  0.28744696    -2.17500
O2703       O  0.88477528  0.50485132  0.24752301    -0.66180
O2704       O  0.86595626  0.47140734  0.27268571    -0.50750
C2705       C  0.86900331  0.49840384  0.26378854     0.72590
O2706       O  0.92195086  0.39755972  0.16438919    -0.59090
O2707       O  0.96303933  0.42860545  0.17596795    -0.51070
C2708       C  0.94109453  0.41570862  0.15855725     0.74390
O2709       O  0.84256033  0.39699691  0.19988726    -0.70480
O2710       O  0.83538016  0.40778454  0.24145791    -0.49160
C2711       C  0.82603727  0.39996078  0.21662000     0.75780
O2712       O  0.95745733  0.00612535  0.20825426    -0.65810
O2713       O  0.99306518  0.47425232  0.20891269    -0.53010
C2714       C  0.98267299  0.99936703  0.20399052     0.74160
Zr2715     Zr  0.92094362  0.48175835  0.23096610     2.77540
O2716       O  0.88753087  0.49438472  0.18947397    -0.96560
O2717       O  0.93305703  0.03270858  0.24650512    -0.77380
Zr2718     Zr  0.89475641  0.40331087  0.19796562     2.70070
O2719       O  0.86590273  0.42587936  0.15882788    -0.78630
O2720       O  0.87960903  0.35349053  0.17980227    -0.97710
Zr2721     Zr  0.97688563  0.42958512  0.22534185     2.21500
Zr2722     Zr  0.88481414  0.41818540  0.26777763     2.11130
O2723       O  0.88471309  0.44117290  0.22613544    -2.46400
O2724       O  0.92976184  0.44434476  0.20301666    -0.78420
O2725       O  0.91838186  0.46058636  0.27285579    -0.70620
O2726       O  0.94331561  0.38722744  0.21594449    -2.31580
O2727       O  0.96691381  0.46657871  0.25485878    -2.27780
O2728       O  0.89879044  0.38220744  0.23926204    -0.72380
H2729       H  0.93174473  0.38949301  0.30338851     0.79620
H2730       H  0.94918474  0.37332672  0.20394327     0.80710
H2731       H  0.86551534  0.44839807  0.21874080     0.82930
H2732       H  0.98200375  0.48248121  0.25824771     0.80540
H2733       H  0.93140741  0.32114503  0.21637654     0.43570
H2734       H  0.87156711  0.34367266  0.19374853     0.42540
H2735       H  0.87823019  0.44351750  0.15640301     0.42220
H2736       H  0.86764158  0.49375076  0.19331084     0.40160
H2737       H  0.93360137  0.03294396  0.26583899     0.43290
H2738       H  0.98164465  0.50299288  0.30741790     0.38070
H2739       H  0.50043607  0.42645913  0.34470991     0.44190
H2740       H  0.95572724  0.33936878  0.30803077     0.40600
H2741       H  0.89305536  0.01526046  0.18746613     0.45520
H2742       H  0.95624851  0.49673922  0.32211291     0.44250
H2743       H  0.98288489  0.33196167  0.29648348     0.44380
H2744       H  0.86210006  0.35579513  0.16501853     0.44740
O2745       O  0.74248163  0.21611836  0.08253118    -0.74130
O2746       O  0.74056907  0.17196609  0.10082049    -0.53040
C2747       C  0.73025510  0.19670394  0.09591251     0.79600
O2748       O  0.78688555  0.16937853  0.46458932    -0.58730
O2749       O  0.83477824  0.18542733  0.48067283    -0.51760
C2750       C  0.81274296  0.17686403  0.46162009     0.71610
O2751       O  0.71088078  0.15342585  0.50003981    -0.73290
O2752       O  0.70828399  0.16577352  0.04111679    -0.53850
C2753       C  0.69883914  0.16711219  0.01535056     0.77610
O2754       O  0.82952192  0.25333099  0.05300686    -0.58430
O2755       O  0.85850543  0.22734655  0.03139115    -0.51550
C2756       C  0.85102863  0.25133067  0.04105561     0.74210
Zr2757     Zr  0.79153283  0.22024842  0.06592393     2.54710
O2758       O  0.76834653  0.26517274  0.05062079    -0.79000
O2759       O  0.81025744  0.24615803  0.10902752    -0.92420
Zr2760     Zr  0.75911755  0.17196219  0.99815494     2.64680
O2761       O  0.74226613  0.21946388  0.48121570    -0.97370
O2762       O  0.72806389  0.15609296  0.45461911    -0.79430
O2763       O  0.75361711  0.18805736  0.04117220    -0.82790
O2764       O  0.79731331  0.20506687  0.02220898    -2.17500
O2765       O  0.88815822  0.14343228  0.08582339    -0.66180
O2766       O  0.89016049  0.17148731  0.05083835    -0.50750
C2767       C  0.89818346  0.14954276  0.06509657     0.72590
O2768       O  0.75048476  0.07389994  0.03105539    -0.59090
O2769       O  0.74169109  0.09517183  0.06813473    -0.51070
C2770       C  0.73347635  0.07892123  0.04707848     0.74390
O2771       O  0.84828341  0.09393536  0.02006917    -0.70480
O2772       O  0.86305725  0.13858524  0.00765605    -0.49160
C2773       C  0.86869298  0.11340058  0.01738054     0.75780
O2774       O  0.81564553  0.13879484  0.13008706    -0.65810
O2775       O  0.76538100  0.13654415  0.11571427    -0.53010
C2776       C  0.78957209  0.13623234  0.13410898     0.74160
Zr2777     Zr  0.83921606  0.15255113  0.09542567     2.77540
O2778       O  0.86372174  0.11734351  0.12659167    -0.96560
O2779       O  0.86708304  0.19223875  0.12479587    -0.77380
Zr2780     Zr  0.79820507  0.10052990  0.02865268     2.70070
O2781       O  0.81166200  0.05405429  0.04892480    -0.78630
O2782       O  0.78559590  0.07833169  0.98359563    -0.97710
Zr2783     Zr  0.75569671  0.14583501  0.06768028     2.21500
Zr2784     Zr  0.83974443  0.17654168  0.02751737     2.11130
O2785       O  0.83550724  0.13411660  0.05272781    -2.46400
O2786       O  0.79879676  0.11862398  0.07304347    -0.78420
O2787       O  0.83726428  0.19565238  0.07063048    -0.70620
O2788       O  0.75674620  0.12931944  0.02334794    -2.31580
O2789       O  0.79561148  0.17830702  0.09141899    -2.27780
O2790       O  0.80072499  0.14340264  0.00323638    -0.72380
H2791       H  0.79972320  0.22185949  0.01173197     0.79620
H2792       H  0.73967492  0.11737035  0.01404439     0.80710
H2793       H  0.85084398  0.12087344  0.05699953     0.82930
H2794       H  0.79381660  0.18479811  0.10892651     0.80540
H2795       H  0.73061464  0.13470030  0.45325808     0.43570
H2796       H  0.79867882  0.08835914  0.47475165     0.42540
H2797       H  0.82682606  0.05977046  0.06545891     0.42220
H2798       H  0.86810619  0.10115445  0.11515517     0.40160
H2799       H  0.88622552  0.19437361  0.11956110     0.43290
H2800       H  0.79338982  0.24510078  0.11772528     0.38070
H2801       H  0.77213357  0.26740126  0.03261742     0.44190
H2802       H  0.76013280  0.23177157  0.48035043     0.40600
H2803       H  0.88327287  0.12711608  0.13513266     0.45520
H2804       H  0.81231576  0.26708619  0.10464889     0.44250
H2805       H  0.73253346  0.21497414  0.46220242     0.44380
H2806       H  0.79288307  0.05830014  0.98572325     0.44740
O2807       O  0.78321870  0.25061320  0.33692605    -0.74130
O2808       O  0.74961055  0.21481766  0.34278148    -0.53040
C2809       C  0.76082855  0.24118750  0.34594924     0.79600
O2810       O  0.78737266  0.15512658  0.21428895    -0.58730
O2811       O  0.83773191  0.15942572  0.22576665    -0.51760
C2812       C  0.81276564  0.15319270  0.20901237     0.71610
O2813       O  0.71986273  0.18671026  0.25358231    -0.73290
O2814       O  0.71476866  0.18720941  0.29650554    -0.53850
C2815       C  0.70487563  0.19028869  0.27122419     0.77610
O2816       O  0.84685623  0.25504701  0.28912947    -0.58430
O2817       O  0.86883381  0.22086215  0.26785594    -0.51550
C2818       C  0.86420980  0.24859182  0.27460779     0.74210
Zr2819     Zr  0.81453569  0.22883539  0.30906308     2.54710
O2820       O  0.79125961  0.27097416  0.28695283    -0.79000
O2821       O  0.85084561  0.25634108  0.34424348    -0.92420
Zr2822     Zr  0.76834562  0.17579350  0.25002175     2.64680
O2823       O  0.76459147  0.21556098  0.21960092    -0.97370
O2824       O  0.72909317  0.14979174  0.21656264    -0.79430
O2825       O  0.76882957  0.20492123  0.28930099    -0.82790
O2826       O  0.81346474  0.20226574  0.26743280    -2.17500
O2827       O  0.89799872  0.15824417  0.33790903    -0.66180
O2828       O  0.90145242  0.16196329  0.29462678    -0.50750
C2829       C  0.91312406  0.15912013  0.31950984     0.72590
O2830       O  0.73893853  0.09575409  0.29975063    -0.59090
O2831       O  0.72553239  0.13455838  0.32218267    -0.51070
C2832       C  0.72005926  0.10950440  0.30994782     0.74390
O2833       O  0.82489352  0.07730339  0.27941572    -0.70480
O2834       O  0.85883569  0.10952038  0.26719338    -0.49160
C2835       C  0.84818791  0.08250763  0.27084720     0.75780
O2836       O  0.82369989  0.16095820  0.38352308    -0.65810
O2837       O  0.77337832  0.16284016  0.36924589    -0.53010
C2838       C  0.79745793  0.16175677  0.38735283     0.74160
Zr2839     Zr  0.84680727  0.15977516  0.34631149     2.77540
O2840       O  0.86318245  0.11466370  0.36793464    -0.96560
O2841       O  0.87975967  0.18928208  0.38234940    -0.77380
Zr2842     Zr  0.79004847  0.10739906  0.29263534     2.70070
O2843       O  0.79715937  0.06799512  0.32406963    -0.78630
O2844       O  0.76451856  0.07732720  0.25332903    -0.97710
Zr2845     Zr  0.76256527  0.17179438  0.32215383     2.21500
Zr2846     Zr  0.84952944  0.16565257  0.27418334     2.11130
O2847       O  0.83903288  0.13200187  0.30665494    -2.46400
O2848       O  0.79799818  0.13531437  0.33292479    -0.78420
O2849       O  0.85275071  0.19439982  0.31468820    -0.70620
O2850       O  0.75674211  0.14415671  0.28144948    -2.31580
O2851       O  0.81001259  0.19526358  0.34090606    -2.27780
O2852       O  0.80218657  0.13916175  0.25990520    -0.72380
H2853       H  0.81601456  0.21554531  0.25376592     0.79620
H2854       H  0.73671907  0.13685417  0.27356115     0.80710
H2855       H  0.85384696  0.11781186  0.31118708     0.82930
H2856       H  0.81075302  0.20584474  0.35756303     0.80540
H2857       H  0.73296499  0.12877690  0.21915989     0.43570
H2858       H  0.77554432  0.08184967  0.23949183     0.42540
H2859       H  0.81774254  0.07172702  0.33468749     0.42220
H2860       H  0.87844121  0.10793032  0.35896573     0.40160
H2861       H  0.88582002  0.20688835  0.37359857     0.43290
H2862       H  0.84640459  0.24979493  0.36113714     0.38070
H2863       H  0.78014730  0.26296069  0.26918327     0.44190
H2864       H  0.78097354  0.21346298  0.21052796     0.40600
H2865       H  0.87437661  0.12132078  0.38610052     0.45520
H2866       H  0.84480999  0.27687187  0.34287708     0.44250
H2867       H  0.74655675  0.20958173  0.20566175     0.44380
H2868       H  0.76884783  0.05681376  0.25797947     0.44740
O2869       O  0.57238376  0.50220023  0.08253497    -0.74130
O2870       O  0.55328537  0.49259000  0.11704683    -0.53040
C2871       C  0.55603781  0.48567879  0.09328058     0.79600
O2872       O  0.66516450  0.06849235  0.07495471    -0.58730
O2873       O  0.64552427  0.11177201  0.06061879    -0.51760
C2874       C  0.66290790  0.09046936  0.05986861     0.71610
O2875       O  0.64998794  0.00643177  0.13504014    -0.73290
O2876       O  0.61321952  0.50009063  0.15777753    -0.53850
C2877       C  0.63696818  0.49285236  0.15151772     0.77610
O2878       O  0.56445238  0.07252995  0.02951390    -0.58430
O2879       O  0.58661587  0.11870866  0.03653342    -0.51550
C2880       C  0.57465396  0.09625542  0.02140513     0.74210
Zr2881     Zr  0.55810489  0.05110071  0.06979860     2.54710
O2882       O  0.53945521  0.01921485  0.02998630    -0.79000
O2883       O  0.50410552  0.04811893  0.06046068    -0.92420
Zr2884     Zr  0.64355651  0.05140675  0.10990716     2.64680
O2885       O  0.65687725  0.00947000  0.08574514    -0.97370
O2886       O  0.69418582  0.06412989  0.13459537    -0.79430
O2887       O  0.59523550  0.03118230  0.10288569    -0.82790
O2888       O  0.60692104  0.07079685  0.07489112    -2.17500
O2889       O  0.54455231  0.15913249  0.11046015    -0.66180
O2890       O  0.57949332  0.16742773  0.08607121    -0.50750
C2891       C  0.56033595  0.17602898  0.09893847     0.72590
O2892       O  0.60768747  0.09482671  0.19772645    -0.59090
O2893       O  0.59135414  0.04629429  0.19082109    -0.51070
C2894       C  0.59662111  0.07043968  0.20499270     0.74390
O2895       O  0.66270875  0.14785943  0.14232055    -0.70480
O2896       O  0.64536294  0.16022706  0.09902017    -0.49160
C2897       C  0.66494637  0.16250825  0.12122505     0.75780
O2898       O  0.01445738  0.07876745  0.14945828    -0.65810
O2899       O  0.53702731  0.03658746  0.15943764    -0.53010
C2900       C  0.51677438  0.05416320  0.16087962     0.74160
Zr2901     Zr  0.54267341  0.10788532  0.12159835     2.77540
O2902       O  0.52455424  0.13717346  0.15404946    -0.96560
O2903       O  0.99496836  0.10689632  0.08856729    -0.77380
Zr2904     Zr  0.62900415  0.11151715  0.15998637     2.70070
O2905       O  0.62686244  0.15767213  0.18415715    -0.78630
O2906       O  0.67407165  0.10152186  0.19240287    -0.97710
Zr2907     Zr  0.58093207  0.03814811  0.14307201     2.21500
Zr2908     Zr  0.60610383  0.12201179  0.08470405     2.11130
O2909       O  0.59226930  0.12980980  0.12649785    -2.46400
O2910       O  0.58048227  0.08900475  0.15397284    -0.78420
O2911       O  0.55621979  0.10194279  0.07966326    -0.70620
O2912       O  0.63028293  0.06025382  0.15079693    -2.31580
O2913       O  0.54260038  0.05716660  0.10994886    -2.27780
O2914       O  0.64280646  0.10238993  0.11929886    -0.72380
H2915       H  0.61190927  0.06641434  0.05814124     0.79620
H2916       H  0.64360590  0.05183689  0.16556857     0.80710
H2917       H  0.59431196  0.15020561  0.13241911     0.82930
H2918       H  0.52374538  0.04677995  0.10902414     0.80540
H2919       H  0.69559876  0.05543356  0.15222511     0.43570
H2920       H  0.69010199  0.10686345  0.18338437     0.42540
H2921       H  0.60599909  0.15812410  0.18544760     0.42220
H2922       H  0.54127175  0.15134249  0.16228223     0.40160
H2923       H  0.98202425  0.09247125  0.09526254     0.43290
H2924       H  0.99704868  0.02878830  0.05078952     0.38070
H2925       H  0.56261256  0.51400118  0.02471164     0.44190
H2926       H  0.64649440  0.01157750  0.06685852     0.40600
H2927       H  0.00889588  0.14901153  0.14258893     0.45520
H2928       H  0.49803052  0.06197338  0.04598589     0.44250
H2929       H  0.67811872  0.01333983  0.08617726     0.44380
H2930       H  0.67587378  0.11697811  0.20667526     0.44740
O2931       O  0.53394338  0.48896862  0.32056585    -0.74130
O2932       O  0.56281545  0.48382984  0.36137591    -0.53040
C2933       C  0.55418613  0.47590706  0.33629094     0.79600
O2934       O  0.64493872  0.08303003  0.33080461    -0.58730
O2935       O  0.61697704  0.12072407  0.31307539    -0.51760
C2936       C  0.64068579  0.10571348  0.31683088     0.71610
O2937       O  0.63136250  0.51270280  0.38389953    -0.73290
O2938       O  0.59626114  0.50123826  0.40719221    -0.53850
C2939       C  0.62058396  0.49748055  0.40042384     0.77610
O2940       O  0.55463503  0.06188225  0.27084046    -0.58430
O2941       O  0.56199951  0.11151537  0.27787883    -0.51550
C2942       C  0.56160772  0.08784354  0.26374731     0.74210
Zr2943     Zr  0.53892723  0.03982083  0.30925931     2.54710
O2944       O  0.54079178  0.00479941  0.27335349    -0.79000
O2945       O  0.48964259  0.04666831  0.28233765    -0.92420
Zr2946     Zr  0.62010105  0.05614894  0.35826486     2.64680
O2947       O  0.63993240  0.01969054  0.33284735    -0.97370
O2948       O  0.66754754  0.07338927  0.38715601    -0.79430
O2949       O  0.57555379  0.02868569  0.34762118    -0.82790
O2950       O  0.58396444  0.06822303  0.31970737    -2.17500
O2951       O  0.49876410  0.13559439  0.34744833    -0.66180
O2952       O  0.51712472  0.13897173  0.31089935    -0.50750
C2953       C  0.49629740  0.14334741  0.32369372     0.72590
O2954       O  0.57640778  0.09086290  0.44030197    -0.59090
O2955       O  0.56291309  0.04178686  0.43461122    -0.51070
C2956       C  0.56871474  0.06626247  0.44874958     0.74390
O2957       O  0.59901697  0.15732527  0.38637771    -0.70480
O2958       O  0.58594352  0.16369979  0.34134441    -0.49160
C2959       C  0.59601796  0.17267914  0.36548628     0.75780
O2960       O  0.99060062  0.04933212  0.39461894    -0.65810
O2961       O  0.51177402  0.01367159  0.39867349    -0.53010
C2962       C  0.99636443  0.02324183  0.40303317     0.74160
Zr2963     Zr  0.50640802  0.08649551  0.36013917     2.77540
O2964       O  0.48023411  0.11049423  0.38987812    -0.96560
O2965       O  0.95962433  0.06804542  0.33419367    -0.77380
Zr2966     Zr  0.58848815  0.10912235  0.40120855     2.70070
O2967       O  0.58233340  0.14809588  0.43238570    -0.78630
O2968       O  0.63997031  0.11019906  0.42600734    -0.97710
Zr2969     Zr  0.55731173  0.02892655  0.38667285     2.21500
Zr2970     Zr  0.56752696  0.11606496  0.32550309     2.11130
O2971       O  0.54963470  0.11987149  0.36556553    -2.46400
O2972       O  0.54539746  0.07723086  0.39574653    -0.78420
O2973       O  0.52294402  0.08571423  0.31917640    -0.70620
O2974       O  0.60147158  0.06061291  0.39660555    -2.31580
O2975       O  0.51895215  0.03906570  0.34863701    -2.27780
O2976       O  0.60680442  0.10517256  0.36282418    -0.72380
H2977       H  0.59434230  0.06667979  0.30565765     0.79620
H2978       H  0.61549679  0.05566142  0.41260733     0.80710
H2979       H  0.54610692  0.14001229  0.36948703     0.82930
H2980       H  0.00652486  0.02099817  0.34850586     0.80540
H2981       H  0.66940805  0.06174327  0.40335401     0.43570
H2982       H  0.64945688  0.12783815  0.41988621     0.42540
H2983       H  0.56135196  0.15275557  0.42633344     0.42220
H2984       H  0.49120756  0.12972608  0.39540806     0.40160
H2985       H  0.95210836  0.08655808  0.32637505     0.43290
H2986       H  0.97949347  0.04821601  0.29617301     0.38070
H2987       H  0.56183486  0.50323794  0.27480742     0.44190
H2988       H  0.63093073  0.02328745  0.31390278     0.40600
H2989       H  0.96379792  0.11127253  0.38180530     0.45520
H2990       H  0.49031603  0.06692413  0.27589903     0.44250
H2991       H  0.66109238  0.02607784  0.33533598     0.44380
H2992       H  0.63940294  0.11546580  0.44465156     0.44740
C2993       C  0.58749873  0.06953166  0.23056949    -0.15270
C2994       C  0.57217391  0.09065690  0.23888395    -0.30450
H2995       H  0.59021156  0.04919052  0.24120143     0.13750
H2996       H  0.56917336  0.11100686  0.22830924     0.14330
C2997       C  0.56636489  0.06711895  0.47669084    -0.15270
C2998       C  0.57405243  0.09624582  0.99286335    -0.30450
H2999       H  0.56163977  0.04646238  0.48537279     0.13750
H3000       H  0.57915727  0.11690155  0.98435838     0.14330
C3001       C  0.94583017  0.15547918  0.32842399    -0.15270
C3002       C  0.96618353  0.15246942  0.31303551    -0.30450
H3003       H  0.95303228  0.15273557  0.34978243     0.13750
H3004       H  0.95996168  0.15559350  0.29169151     0.14330
C3005       C  0.66668640  0.11518198  0.30642573    -0.15270
C3006       C  0.68950078  0.09709392  0.30734572    -0.30450
H3007       H  0.66950783  0.13833323  0.30243821     0.13750
H3008       H  0.68640130  0.07358158  0.30965778     0.14330
C3009       C  0.79473398  0.16288913  0.41472724    -0.15270
C3010       C  0.81698475  0.17423296  0.43456550    -0.30450
H3011       H  0.77320271  0.15634801  0.41824072     0.13750
H3012       H  0.83820097  0.18160553  0.43083213     0.14330
C3013       C  0.81317786  0.14379932  0.18166516    -0.15270
C3014       C  0.78824740  0.13662875  0.16242411    -0.30450
H3015       H  0.83470796  0.14518792  0.17683319     0.13750
H3016       H  0.76667520  0.13548732  0.16717331     0.14330
C3017       C  0.91368169  0.12651541  0.05365525    -0.15270
C3018       C  0.89982394  0.10943526  0.03162695    -0.30450
H3019       H  0.93529731  0.12091702  0.06488624     0.13750
H3020       H  0.91075290  0.09066875  0.02591671     0.14330
C3021       C  0.68311268  0.09132128  0.04154215    -0.15270
C3022       C  0.70188068  0.06956202  0.04066869    -0.30450
H3023       H  0.68851422  0.11287014  0.03505938     0.13750
H3024       H  0.69647993  0.04752083  0.04634108     0.14330
C3025       C  0.56438852  0.44392957  0.29866008    -0.15270
C3026       C  0.57232873  0.45565002  0.32408218    -0.30450
H3027       H  0.58100725  0.43428418  0.28996596     0.13750
H3028       H  0.59521323  0.45415657  0.33457183     0.14330
C3029       C  0.00175042  0.02004333  0.19246213    -0.15270
C3030       C  0.99425797  0.04228134  0.17561071    -0.30450
H3031       H  0.02453504  0.01377428  0.19638970     0.13750
H3032       H  0.47357868  0.05299164  0.17405524     0.14330
C3033       C  0.86871647  0.30518575  0.27139107    -0.15270
C3034       C  0.87849984  0.27710810  0.26652960    -0.30450
H3035       H  0.84888704  0.30656798  0.27891306     0.13750
H3036       H  0.89769304  0.27542343  0.25812183     0.14330
C3037       C  0.85500930  0.02583641  0.27186617    -0.15270
C3038       C  0.86301516  0.05451241  0.26539503    -0.30450
H3039       H  0.83755519  0.52252839  0.28285568     0.13750
H3040       H  0.88092828  0.05765618  0.25533872     0.14330
C3041       C  0.93736313  0.42617069  0.38460076    -0.15270
C3042       C  0.91319624  0.42311219  0.36372224    -0.30450
H3043       H  0.95903767  0.43224402  0.38121275     0.13750
H3044       H  0.89151763  0.41720783  0.36717788     0.14330
C3045       C  0.90873839  0.41670699  0.11377173    -0.15270
C3046       C  0.93562124  0.42343893  0.13034720    -0.30450
H3047       H  0.89179830  0.40373544  0.12049556     0.13750
H3048       H  0.95263253  0.43624765  0.12359225     0.14330
C3049       C  0.54081662  0.45770784  0.05024814    -0.15270
C3050       C  0.53835243  0.46136465  0.07593550    -0.30850
H3051       H  0.56027084  0.46692104  0.04446220     0.13750
H3052       H  0.52004442  0.45053312  0.08220818     0.14330
C3053       C  0.97874170  0.00739692  0.41954681    -0.15270
C3054       C  0.96230343  0.01876979  0.43548209    -0.30450
H3055       H  0.98266681  0.98409417  0.42096176     0.13750
H3056       H  0.99225521  0.53449151  0.45286651     0.14330
C3057       C  0.86048041  0.30565371  0.04036741    -0.15270
C3058       C  0.86870321  0.27820287  0.03721910    -0.30450
H3059       H  0.84036264  0.30890060  0.04707769     0.13750
H3060       H  0.88828722  0.27506800  0.02962108     0.14330
C3061       C  0.80473792  0.45143676  0.48239818    -0.15270
C3062       C  0.79844869  0.42526637  0.46803758    -0.30450
H3063       H  0.78872633  0.46819949  0.47858151     0.13750
H3064       H  0.77761624  0.42185885  0.45326110     0.14330
C3065       C  0.67786850  0.19758947  0.47655736    -0.15270
C3066       C  0.68088167  0.19208024  0.50308272    -0.30450
H3067       H  0.68204350  0.18058270  0.46299073     0.13750
H3068       H  0.67599367  0.20881947  0.51657854     0.14330
C3069       C  0.75578464  0.27329385  0.38442480    -0.15270
C3070       C  0.74484337  0.26116068  0.35975829    -0.30450
H3071       H  0.77934705  0.27403507  0.39348081     0.13750
H3072       H  0.72105051  0.26063786  0.35167354     0.14330
C3073       C  0.72388819  0.40610798  0.51138213    -0.15270
C3074       C  0.70972441  0.39147478  0.52809172    -0.30450
H3075       H  0.74438681  0.41898794  0.51986835     0.13750
H3076       H  0.71924598  0.39311325  0.54945468     0.14330
C3077       C  0.53165626  0.35518686  0.48358550    -0.15270
C3078       C  0.55461862  0.37301209  0.48012759    -0.30450
H3079       H  0.53193904  0.33140248  0.48157342     0.13750
H3080       H  0.55472523  0.39667616  0.48358505     0.14330
C3081       C  0.58853648  0.21586625  0.38785653    -0.15270
C3082       C  0.60156212  0.20344903  0.37028511    -0.30450
H3083       H  0.57339074  0.20320795  0.39714246     0.13750
H3084       H  0.61564933  0.21562021  0.35965188     0.14330
C3085       C  0.62047663  0.44649764  0.39545925    -0.15270
C3086       C  0.63400075  0.47069677  0.40880587    -0.30450
H3087       H  0.60247315  0.44770049  0.37803925     0.13750
H3088       H  0.65240019  0.47028156  0.42617139     0.14330
C3089       C  0.63912867  0.29339448  0.29521769    -0.15270
C3090       C  0.65488707  0.27944758  0.31630359    -0.30450
H3091       H  0.62164195  0.30704697  0.29820947     0.13750
H3092       H  0.67159210  0.26473479  0.31343918     0.14330
C3093       C  0.70245380  0.31490717  0.08653403    -0.15270
C3094       C  0.72554728  0.30317277  0.10321531    -0.30450
H3095       H  0.70088628  0.31473834  0.06521072     0.13750
H3096       H  0.74287215  0.29356807  0.09549134     0.14330
C3097       C  0.67520752  0.20095667  0.26072144    -0.15270
C3098       C  0.66349023  0.19713500  0.23423046    -0.30450
H3099       H  0.66886453  0.21915824  0.27183777     0.13750
H3100       H  0.67042644  0.17866915  0.22384839     0.14330
C3101       C  0.70047458  0.19816783  0.10287065    -0.15270
C3102       C  0.69391374  0.17953935  0.12171890    -0.30450
H3103       H  0.68274732  0.20750167  0.08854183     0.13750
H3104       H  0.71248275  0.17199833  0.13646962     0.14330
C3105       C  0.77494761  0.39219299  0.22215732    -0.15270
C3106       C  0.79412957  0.39312037  0.20623883    -0.30450
H3107       H  0.78255357  0.39787798  0.24336699     0.13750
H3108       H  0.78669590  0.38610705  0.18528692     0.14330
C3109       C  0.54026712  0.35531804  0.23305952    -0.15270
C3110       C  0.54084074  0.32976791  0.21991809    -0.30450
H3111       H  0.55997831  0.37026595  0.23773833     0.13750
H3112       H  0.52149973  0.31445373  0.21456083     0.14330
C3113       C  0.56079262  0.20773314  0.10551192    -0.15270
C3114       C  0.56094399  0.21694700  0.13094681    -0.30450
H3115       H  0.56924007  0.22248008  0.09242735     0.13750
H3116       H  0.55427929  0.20157610  0.14453240     0.14330
C3117       C  0.64896462  0.46634335  0.16353628    -0.15270
C3118       C  0.66429551  0.44845858  0.15162790    -0.30450
H3119       H  0.64021803  0.45869587  0.18017273     0.13750
H3120       H  0.67341703  0.45560213  0.13508372     0.14330
O3121       O  0.64160693  0.40879154  0.66955405    -0.74130
O3122       O  0.68190675  0.40279966  0.65230126    -0.53040
C3123       C  0.66249074  0.41851860  0.65889482     0.79600
O3124       O  0.66977359  0.31179954  0.76735702    -0.58730
O3125       O  0.62741901  0.28353620  0.74870690    -0.51760
C3126       C  0.64679291  0.29537274  0.76893339     0.71610
O3127       O  0.73272446  0.36749182  0.73027788    -0.73290
O3128       O  0.73388615  0.37707149  0.68713393    -0.53850
C3129       C  0.74486978  0.37890618  0.71249575     0.77610
O3130       O  0.57913664  0.34786821  0.70247201    -0.58430
O3131       O  0.57581894  0.29864202  0.70928188    -0.51550
C3132       C  0.56679169  0.32465720  0.71005813     0.74210
Zr3133     Zr  0.61963318  0.36371561  0.68258497     2.54710
O3134       O  0.61559438  0.40206931  0.71516637    -0.79000
O3135       O  0.57717097  0.38214248  0.65167873    -0.92420
Zr3136     Zr  0.68990320  0.33430461  0.73189686     2.64680
O3137       O  0.68932792  0.37541431  0.76294816    -0.97370
O3138       O  0.73160274  0.31279890  0.76125469    -0.79430
O3139       O  0.67188007  0.36662338  0.69734946    -0.82790
O3140       O  0.63749085  0.33199948  0.71731851    -2.17500
O3141       O  0.58767188  0.26129062  0.62685580    -0.66180
O3142       O  0.58575390  0.24817072  0.66883076    -0.50750
C3143       C  0.57847824  0.24444564  0.64301053     0.72590
O3144       O  0.71270373  0.28025912  0.63903640    -0.59090
O3145       O  0.72949378  0.32797317  0.64507135    -0.51070
C3146       C  0.72499194  0.30351500  0.63141496     0.74390
O3147       O  0.67909670  0.23199523  0.70613775    -0.70480
O3148       O  0.63500307  0.23651397  0.71765074    -0.49160
C3149       C  0.65864912  0.22338557  0.71796041     0.75780
O3150       O  0.65709794  0.30681835  0.59990103    -0.65810
O3151       O  0.68168551  0.35097637  0.61153318    -0.53010
C3152       C  0.67697137  0.32670046  0.59764878     0.74160
Zr3153     Zr  0.62165861  0.30291555  0.62844388     2.77540
O3154       O  0.60030252  0.27949740  0.58454083    -0.96560
O3155       O  0.58517772  0.33636863  0.60677787    -0.77380
Zr3156     Zr  0.69292758  0.27167558  0.67875679     2.70070
O3157       O  0.70124137  0.22318742  0.66273073    -0.78630
O3158       O  0.74491704  0.27386206  0.70189203    -0.97710
Zr3159     Zr  0.69015385  0.35165872  0.65981643     2.21500
Zr3160     Zr  0.62113888  0.28307159  0.69995949     2.11130
O3161       O  0.64053982  0.26891209  0.66262251    -2.46400
O3162       O  0.67289466  0.30310156  0.64460576    -0.78420
O3163       O  0.60181576  0.31557538  0.66538040    -0.70620
O3164       O  0.70946125  0.32014987  0.69515425    -2.31580
O3165       O  0.63758328  0.35161474  0.64441083    -2.27780
O3166       O  0.67377935  0.28563705  0.71548010    -0.72380
H3167       H  0.62920232  0.33712337  0.73224426     0.79620
H3168       H  0.73074921  0.32242854  0.69963368     0.80710
H3169       H  0.63531616  0.24863552  0.65671592     0.82930
H3170       H  0.63220556  0.36555955  0.63056220     0.80540
H3171       H  0.74723238  0.31289884  0.75109626     0.43570
H3172       H  0.74515809  0.26514809  0.71930909     0.42540
H3173       H  0.68156895  0.21254634  0.65966954     0.42220
H3174       H  0.61432776  0.26467897  0.58199533     0.40160
H3175       H  0.56641221  0.32876898  0.61076593     0.43290
H3176       H  0.58558162  0.39265233  0.63830445     0.38070
H3177       H  0.63590940  0.40546011  0.72644725     0.44190
H3178       H  0.66908853  0.37417943  0.76602283     0.40600
H3179       H  0.60212638  0.29471570  0.57154958     0.45520
H3180       H  0.57051299  0.39793277  0.66208035     0.44250
H3181       H  0.70215811  0.36982629  0.78003855     0.44380
H3182       H  0.75409270  0.25987072  0.69172419     0.44740
O3183       O  0.57294979  0.33744919  0.95665033    -0.74130
O3184       O  0.60024423  0.38106042  0.96642500    -0.53040
C3185       C  0.57719540  0.36394148  0.96630195     0.79600
O3186       O  0.67464562  0.24765485  0.98360884    -0.58730
O3187       O  0.67158125  0.23104415  0.94061781    -0.51760
C3188       C  0.67394609  0.22701268  0.96602749     0.71610
O3189       O  0.68822602  0.34230292  0.51894617    -0.73290
O3190       O  0.66127339  0.37959658  0.00333938    -0.53850
C3191       C  0.68402203  0.37017877  0.51764759     0.77610
O3192       O  0.58556772  0.25677888  0.91304781    -0.58430
O3193       O  0.61779810  0.25667345  0.88662938    -0.51550
C3194       C  0.59630559  0.24508309  0.89495270     0.74210
Zr3195     Zr  0.59655877  0.30637540  0.93054096     2.54710
O3196       O  0.56198992  0.27852264  0.95082693    -0.79000
O3197       O  0.55526173  0.31649612  0.89384694    -0.92420
Zr3198     Zr  0.67122974  0.30020120  0.98490122     2.64680
O3199       O  0.63831781  0.28860660  0.01412993    -0.97370
O3200       O  0.71432029  0.28607420  0.01752704    -0.79430
O3201       O  0.62917802  0.32760620  0.96977823    -0.82790
O3202       O  0.63801358  0.27814330  0.94648400    -2.17500
O3203       O  0.64338645  0.31257169  0.84773150    -0.66180
O3204       O  0.66152571  0.26925200  0.86355841    -0.50750
C3205       C  0.65255490  0.28689864  0.84436141     0.72590
O3206       O  0.73116950  0.38402021  0.97112140    -0.59090
O3207       O  0.68936734  0.40723133  0.97155362    -0.51070
C3208       C  0.71538179  0.40007542  0.98288702     0.74390
O3209       O  0.74115759  0.30912615  0.91186537    -0.70480
O3210       O  0.71143958  0.26702008  0.89963000    -0.49160
C3211       C  0.73506626  0.28340235  0.90010762     0.75780
O3212       O  0.63433009  0.39934047  0.88558680    -0.65810
O3213       O  0.63813231  0.41481183  0.92886258    -0.53010
C3214       C  0.63548688  0.41914480  0.90390611     0.74160
Zr3215     Zr  0.63935573  0.34736197  0.88326134     2.77540
O3216       O  0.66078521  0.37323604  0.85079946    -0.96560
O3217       O  0.59023854  0.34809333  0.85374734    -0.77380
Zr3218     Zr  0.71630205  0.34333349  0.93613897     2.70070
O3219       O  0.73248323  0.38027171  0.90845663    -0.78630
O3220       O  0.76633042  0.33810805  0.96253677    -0.97710
Zr3221     Zr  0.64767898  0.37252084  0.95553583     2.21500
Zr3222     Zr  0.66518501  0.27515311  0.91220444     2.11130
O3223       O  0.68215843  0.32126402  0.89878918    -2.46400
O3224       O  0.67374546  0.37045370  0.92068803    -0.78420
O3225       O  0.62251109  0.30199206  0.89628275    -0.70620
O3226       O  0.68837243  0.34229861  0.96807178    -2.31580
O3227       O  0.61258614  0.35249178  0.91709162    -2.27780
O3228       O  0.69915378  0.29713440  0.95071840    -0.72380
H3229       H  0.63003613  0.25924464  0.95039334     0.79620
H3230       H  0.70413848  0.34772421  0.98299590     0.80710
H3231       H  0.69169912  0.31920098  0.88415870     0.82930
H3232       H  0.59630245  0.36502041  0.91173302     0.80540
H3233       H  0.73093937  0.30129793  0.51518378     0.43570
H3234       H  0.76786384  0.31666445  0.96467576     0.42540
H3235       H  0.72566038  0.37182053  0.88999409     0.42220
H3236       H  0.67785098  0.36194203  0.84896898     0.40160
H3237       H  0.58424801  0.32714297  0.84868844     0.43290
H3238       H  0.54352968  0.33018481  0.90178230     0.38070
H3239       H  0.57415561  0.27289541  0.96821160     0.44190
H3240       H  0.62667322  0.27052976  0.00582277     0.40600
H3241       H  0.64611859  0.36964069  0.83355221     0.45520
H3242       H  0.54281765  0.29784710  0.89041770     0.44250
H3243       H  0.65185620  0.28148680  0.53007463     0.44380
H3244       H  0.77939392  0.34338225  0.95049038     0.44740
O3245       O  0.49488219  0.44185953  0.53742618    -0.74130
O3246       O  0.51845229  0.44298368  0.50657537    -0.53040
C3247       C  0.51917081  0.44571001  0.53144641     0.79600
O3248       O  0.90187118  0.32886889  0.52555977    -0.58730
O3249       O  0.86464742  0.35636655  0.53285321    -0.51760
C3250       C  0.87714317  0.33192503  0.53242107     0.71610
O3251       O  0.48598159  0.35516025  0.99699988    -0.73290
O3252       O  0.49942333  0.39692225  0.97813401    -0.53850
C3253       C  0.50359841  0.37080449  0.98603987     0.77610
O3254       O  0.91682159  0.44463743  0.57769203    -0.58430
O3255       O  0.88222036  0.40763059  0.56882224    -0.51550
C3256       C  0.90189764  0.42381702  0.58533283     0.74210
Zr3257     Zr  0.95391926  0.43604229  0.55352973     2.54710
O3258       O  0.98200190  0.41062062  0.59128848    -0.79000
O3259       O  0.97464127  0.47926302  0.58202243    -0.92420
Zr3260     Zr  0.93968388  0.35957388  0.51066688     2.64680
O3261       O  0.96976883  0.33914994  0.55046081    -0.97370
O3262       O  0.93370938  0.31166297  0.98638123    -0.79430
O3263       O  0.96857832  0.40430839  0.52192143    -0.82790
O3264       O  0.92483542  0.39096827  0.54254132    -2.17500
O3265       O  0.85218776  0.47759769  0.49158181    -0.66180
O3266       O  0.84296420  0.44375301  0.52047070    -0.50750
C3267       C  0.83441877  0.45941715  0.50017965     0.72590
O3268       O  0.90986024  0.41158250  0.91545213    -0.59090
O3269       O  0.95836685  0.42626189  0.93187325    -0.51070
C3270       C  0.93523925  0.42086481  0.91248777     0.74390
O3271       O  0.83418262  0.40035785  0.95045462    -0.70480
O3272       O  0.82969927  0.39131237  0.99227649    -0.49160
C3273       C  0.82073949  0.40274273  0.96971953     0.75780
O3274       O  0.93574754  0.99999635  0.96407934    -0.65810
O3275       O  0.97887288  0.47613143  0.96633756    -0.53010
C3276       C  0.96171420  0.99748074  0.95944455     0.74160
Zr3277     Zr  0.90660417  0.47605998  0.99243845     2.77540
O3278       O  0.88478729  0.51769592  0.96807619    -0.96560
O3279       O  0.91935424  0.01373804  0.53094289    -0.77380
Zr3280     Zr  0.88786343  0.39640835  0.95098730     2.70070
O3281       O  0.85419698  0.39644942  0.90702381    -0.78630
O3282       O  0.88514648  0.34401145  0.93935955    -0.97710
Zr3283     Zr  0.96712156  0.42868016  0.98113410     2.21500
Zr3284     Zr  0.87693283  0.40569491  0.52094332     2.11130
O3285       O  0.87891057  0.43109641  0.98128263    -2.46400
O3286       O  0.91837208  0.44187332  0.96073517    -0.78420
O3287       O  0.90621286  0.45102409  0.53270432    -0.70620
O3288       O  0.93701708  0.38342036  0.96981404    -2.31580
O3289       O  0.95426402  0.46300277  0.51369718    -2.27780
O3290       O  0.89009432  0.37113233  0.99067572    -0.72380
H3291       H  0.92453980  0.38027065  0.55842531     0.79620
H3292       H  0.94397830  0.37132170  0.95712777     0.80710
H3293       H  0.86186623  0.43842899  0.97003820     0.82930
H3294       H  0.96704342  0.48085290  0.51728885     0.80540
H3295       H  0.93664708  0.31637172  0.96849048     0.43570
H3296       H  0.86405339  0.33762280  0.93734426     0.42540
H3297       H  0.84996693  0.41736736  0.90422376     0.42220
H3298       H  0.86796205  0.50904141  0.95403426     0.40160
H3299       H  0.90177395  0.01635514  0.53830996     0.43290
H3300       H  0.98989031  0.48835063  0.57376060     0.38070
H3301       H  0.49048667  0.39580254  0.58199122     0.44190
H3302       H  0.95631409  0.33624653  0.56261839     0.40600
H3303       H  0.87462886  0.02832660  0.98077734     0.45520
H3304       H  0.98562267  0.47170851  0.59909917     0.44250
H3305       H  0.97313047  0.31897596  0.54465400     0.44380
H3306       H  0.88814237  0.34303301  0.92095059     0.44740
O3307       O  0.51011638  0.46047860  0.78924000    -0.74130
O3308       O  0.52251310  0.43130613  0.75896033    -0.53040
C3309       C  0.52818491  0.44380995  0.78257123     0.79600
O3310       O  0.90976024  0.33210239  0.76346362    -0.58730
O3311       O  0.87332317  0.36096396  0.77099405    -0.51760
C3312       C  0.88449952  0.33490935  0.76829613     0.71610
O3313       O  0.49379071  0.35579133  0.74693112    -0.73290
O3314       O  0.50669877  0.39102918  0.72032422    -0.53850
C3315       C  0.51089448  0.36738186  0.73308564     0.77610
O3316       O  0.94084449  0.43336324  0.83195931    -0.58430
O3317       O  0.89163035  0.42098233  0.81662376    -0.51550
C3318       C  0.91515795  0.42619158  0.83565240     0.74210
Zr3319     Zr  0.96325817  0.44355481  0.79504847     2.54710
O3320       O  0.99513061  0.44689011  0.83995865    -0.79000
O3321       O  0.96062370  0.49553275  0.80464163    -0.92420
Zr3322     Zr  0.94701640  0.36645370  0.75716933     2.64680
O3323       O  0.97174439  0.34866193  0.80036313    -0.97370
O3324       O  0.94475256  0.31924718  0.73320342    -0.79430
O3325       O  0.97851714  0.40870371  0.76690660    -0.82790
O3326       O  0.93197561  0.40007344  0.78725306    -2.17500
O3327       O  0.88324399  0.50452508  0.74617934    -0.66180
O3328       O  0.86620605  0.47152730  0.77282269    -0.50750
C3329       C  0.86853715  0.49832586  0.76333045     0.72590
O3330       O  0.92173161  0.39813553  0.66421903    -0.59090
O3331       O  0.96286812  0.42911256  0.67583450    -0.51070
C3332       C  0.94090987  0.41625954  0.65841013     0.74390
O3333       O  0.84235456  0.39749342  0.69970058    -0.70480
O3334       O  0.83526122  0.40805320  0.74134606    -0.49160
C3335       C  0.82586776  0.40041434  0.71646815     0.75780
O3336       O  0.96003777  0.00412840  0.71033764    -0.65810
O3337       O  0.99201883  0.47455675  0.70798585    -0.53010
C3338       C  0.98508315  0.99691606  0.70602930     0.74160
Zr3339     Zr  0.92069945  0.48206688  0.73114753     2.77540
O3340       O  0.88816685  0.49564071  0.68951520    -0.96560
O3341       O  0.93191054  0.03223307  0.74404268    -0.77380
Zr3342     Zr  0.89456101  0.40370127  0.69782544     2.70070
O3343       O  0.86576337  0.42641702  0.65874500    -0.78630
O3344       O  0.87941190  0.35393016  0.67953814    -0.97710
Zr3345     Zr  0.97664750  0.43008607  0.72522014     2.21500
Zr3346     Zr  0.88471418  0.41821166  0.76772281     2.11130
O3347       O  0.88457010  0.44138364  0.72618078    -2.46400
O3348       O  0.92947455  0.44478478  0.70305450    -0.78420
O3349       O  0.91821645  0.46066413  0.77295083    -0.70620
O3350       O  0.94315965  0.38767581  0.71569495    -2.31580
O3351       O  0.96675789  0.46695791  0.75489825    -2.27780
O3352       O  0.89860704  0.38237503  0.73902903    -0.72380
H3353       H  0.93170591  0.38945939  0.80315972     0.79620
H3354       H  0.94905631  0.37385476  0.70364392     0.80710
H3355       H  0.86536253  0.44860892  0.71883618     0.82930
H3356       H  0.98181519  0.48289203  0.75827057     0.80540
H3357       H  0.93070985  0.32159994  0.71582905     0.43570
H3358       H  0.87124188  0.34410252  0.69340578     0.42540
H3359       H  0.87803962  0.44415399  0.65647129     0.42220
H3360       H  0.86783168  0.49198648  0.69196120     0.40160
H3361       H  0.93272319  0.03390508  0.76341296     0.43290
H3362       H  0.98129549  0.50318046  0.80714842     0.38070
H3363       H  0.50229015  0.40399646  0.82442994     0.44190
H3364       H  0.95572067  0.33921714  0.80752773     0.40600
H3365       H  0.89779809  0.00986780  0.68413302     0.45520
H3366       H  0.95673556  0.49654214  0.82273267     0.44250
H3367       H  0.98292056  0.33208695  0.79593417     0.44380
H3368       H  0.86198590  0.35629153  0.66468587     0.44740
O3369       O  0.74195979  0.21798571  0.57931116    -0.74130
O3370       O  0.74241249  0.17590660  0.60074471    -0.53040
C3371       C  0.73028674  0.19929554  0.59355641     0.79600
O3372       O  0.78698821  0.16948022  0.96454428    -0.58730
O3373       O  0.83478674  0.18567554  0.98090515    -0.51760
C3374       C  0.81290386  0.17705159  0.96170872     0.71610
O3375       O  0.71089910  0.15300618  0.99985574    -0.73290
O3376       O  0.70795601  0.16627464  0.54118790    -0.53850
C3377       C  0.69877680  0.16767022  0.51541555     0.77610
O3378       O  0.83015086  0.25359718  0.55199578    -0.58430
O3379       O  0.85911573  0.22720727  0.53071482    -0.51550
C3380       C  0.85168116  0.25134218  0.54015328     0.74210
Zr3381     Zr  0.79209990  0.22108891  0.56514036     2.54710
O3382       O  0.77042368  0.26683558  0.55017442    -0.79000
O3383       O  0.81026860  0.24642774  0.60858178    -0.92420
Zr3384     Zr  0.75910724  0.17220698  0.49809081     2.64680
O3385       O  0.74230263  0.21936810  0.98165190    -0.97370
O3386       O  0.72810543  0.15635095  0.95453004    -0.79430
O3387       O  0.75377999  0.18889230  0.54091519    -0.82790
O3388       O  0.79767234  0.20527815  0.52160855    -2.17500
O3389       O  0.88814271  0.14368910  0.58581967    -0.66180
O3390       O  0.89032301  0.17127698  0.55057771    -0.50750
C3391       C  0.89819756  0.14944131  0.56503040     0.72590
O3392       O  0.75029951  0.07461854  0.53204291    -0.59090
O3393       O  0.73908044  0.09698278  0.56786843    -0.51070
C3394       C  0.73248167  0.07966146  0.54734578     0.74390
O3395       O  0.84790084  0.09375295  0.52046056    -0.70480
O3396       O  0.86292526  0.13810554  0.50763969    -0.49160
C3397       C  0.86841656  0.11299427  0.51758120     0.75780
O3398       O  0.81515348  0.13966518  0.62973621    -0.65810
O3399       O  0.76486613  0.13681113  0.61548670    -0.53010
C3400       C  0.78910827  0.13666522  0.63378899     0.74160
Zr3401     Zr  0.83925508  0.15329212  0.59537330     2.77540
O3402       O  0.86377213  0.11842554  0.62690652    -0.96560
O3403       O  0.86714519  0.19295279  0.62475944    -0.77380
Zr3404     Zr  0.79796637  0.10093703  0.52915094     2.70070
O3405       O  0.81131708  0.05449187  0.54953534    -0.78630
O3406       O  0.78484439  0.07847761  0.48419367    -0.97710
Zr3407     Zr  0.75559281  0.14698038  0.56782469     2.21500
Zr3408     Zr  0.83994587  0.17650952  0.52727342     2.11130
O3409       O  0.83552861  0.13441391  0.55285007    -2.46400
O3410       O  0.79856439  0.11947136  0.57337249    -0.78420
O3411       O  0.83763247  0.19613088  0.57022302    -0.70620
O3412       O  0.75673475  0.12994282  0.52368518    -2.31580
O3413       O  0.79590610  0.17942626  0.59119784    -2.27780
O3414       O  0.80062348  0.14344520  0.50334135    -0.72380
H3415       H  0.80017045  0.22188171  0.51094063     0.79620
H3416       H  0.73967399  0.11792229  0.51447810     0.80710
H3417       H  0.85074256  0.12104897  0.55722468     0.82930
H3418       H  0.79452357  0.18609912  0.60878123     0.80540
H3419       H  0.73065203  0.13497789  0.95294040     0.43570
H3420       H  0.79905598  0.08883562  0.97415218     0.42540
H3421       H  0.82678477  0.06019474  0.56586822     0.42220
H3422       H  0.86805858  0.10203477  0.61563015     0.40160
H3423       H  0.88636058  0.19494023  0.61964125     0.43290
H3424       H  0.79278265  0.24658094  0.61644360     0.38070
H3425       H  0.77270537  0.26806247  0.53158732     0.44190
H3426       H  0.76015297  0.23143880  0.98032553     0.40600
H3427       H  0.88336519  0.12820389  0.63529732     0.45520
H3428       H  0.81392114  0.26719078  0.60439932     0.44250
H3429       H  0.73202331  0.21492866  0.96276443     0.44380
H3430       H  0.79144047  0.05819525  0.48644866     0.44740
O3431       O  0.78302640  0.25007679  0.83673442    -0.74130
O3432       O  0.74978351  0.21408986  0.84296288    -0.53040
C3433       C  0.76084383  0.24052247  0.84600392     0.79600
O3434       O  0.78708134  0.15491850  0.71395616    -0.58730
O3435       O  0.83739840  0.15965277  0.72515051    -0.51760
C3436       C  0.81242535  0.15320456  0.70854490     0.71610
O3437       O  0.71970931  0.18571269  0.75340331    -0.73290
O3438       O  0.71489912  0.18694474  0.79639309    -0.53850
C3439       C  0.70486776  0.18969276  0.77106192     0.77610
O3440       O  0.84652816  0.25499835  0.78869701    -0.58430
O3441       O  0.86847693  0.22087084  0.76733603    -0.51550
C3442       C  0.86388943  0.24858831  0.77416156     0.74210
Zr3443     Zr  0.81432760  0.22858361  0.80866205     2.54710
O3444       O  0.79062781  0.27047506  0.78646514    -0.79000
O3445       O  0.85049531  0.25636900  0.84375558    -0.92420
Zr3446     Zr  0.76818557  0.17544916  0.74980452     2.64680
O3447       O  0.76388753  0.21578815  0.71994914    -0.97370
O3448       O  0.72919852  0.14980110  0.71592775    -0.79430
O3449       O  0.76868893  0.20441598  0.78916934    -0.82790
O3450       O  0.81315432  0.20217746  0.76691492    -2.17500
O3451       O  0.89834223  0.15831667  0.83618206    -0.66180
O3452       O  0.90103059  0.16187311  0.79268006    -0.50750
C3453       C  0.91309276  0.15914025  0.81743481     0.72590
O3454       O  0.73930950  0.09505652  0.79970803    -0.59090
O3455       O  0.72543473  0.13389298  0.82176353    -0.51070
C3456       C  0.72022800  0.10867811  0.80975893     0.74390
O3457       O  0.82499325  0.07714982  0.77865686    -0.70480
O3458       O  0.85867544  0.10950413  0.76625749    -0.49160
C3459       C  0.84815535  0.08243655  0.76990871     0.75780
O3460       O  0.82459197  0.16107217  0.88335441    -0.65810
O3461       O  0.77415735  0.16225857  0.86921700    -0.53010
C3462       C  0.79833809  0.16155238  0.88729621     0.74160
Zr3463     Zr  0.84736092  0.15965056  0.84573216     2.77540
O3464       O  0.86421271  0.11469495  0.86736894    -0.96560
O3465       O  0.88069748  0.18921716  0.88147953    -0.77380
Zr3466     Zr  0.79029949  0.10706167  0.79235516     2.70070
O3467       O  0.79801759  0.06781184  0.82392656    -0.78630
O3468       O  0.76456237  0.07676276  0.75326669    -0.97710
Zr3469     Zr  0.76269139  0.17121454  0.82205491     2.21500
Zr3470     Zr  0.84917533  0.16558797  0.77344784     2.11130
O3471       O  0.83924484  0.13182946  0.80605837    -2.46400
O3472       O  0.79851429  0.13501728  0.83265403    -0.78420
O3473       O  0.85273845  0.19434818  0.81401474    -0.70620
O3474       O  0.75683379  0.14368327  0.78129307    -2.31580
O3475       O  0.81021541  0.19484650  0.84048134    -2.27780
O3476       O  0.80201009  0.13882846  0.75942406    -0.72380
H3477       H  0.81559024  0.21547809  0.75322547     0.79620
H3478       H  0.73683748  0.13625598  0.77346693     0.80710
H3479       H  0.85412320  0.11767884  0.81042922     0.82930
H3480       H  0.81103237  0.20543872  0.85714724     0.80540
H3481       H  0.73300936  0.12876787  0.71849259     0.43570
H3482       H  0.77532573  0.08135975  0.73925805     0.42540
H3483       H  0.81864246  0.07171272  0.83439473     0.42220
H3484       H  0.87958456  0.10819834  0.85842722     0.40160
H3485       H  0.88633112  0.20696702  0.87267811     0.43290
H3486       H  0.84628015  0.24964704  0.86068188     0.38070
H3487       H  0.78093924  0.26274478  0.76820130     0.44190
H3488       H  0.77935268  0.21323742  0.70987715     0.40600
H3489       H  0.87530616  0.12141896  0.88554850     0.45520
H3490       H  0.84417516  0.27680427  0.84248178     0.44250
H3491       H  0.74508474  0.21053431  0.70671282     0.44380
H3492       H  0.76911113  0.05629569  0.75791382     0.44740
O3493       O  0.57351036  0.50360737  0.58311260    -0.74130
O3494       O  0.55570882  0.49434346  0.61858956    -0.53040
C3495       C  0.55859704  0.48672246  0.59489516     0.79600
O3496       O  0.66401753  0.06807325  0.57410180    -0.58730
O3497       O  0.64397523  0.11080466  0.55851495    -0.51760
C3498       C  0.66147980  0.08950426  0.55834443     0.71610
O3499       O  0.64826227  0.00725984  0.63551617    -0.73290
O3500       O  0.61410592  0.50393521  0.66141265    -0.53850
C3501       C  0.63621954  0.49490557  0.65331736     0.77610
O3502       O  0.56296715  0.06996134  0.52908613    -0.58430
O3503       O  0.58420611  0.11656668  0.53464147    -0.51550
C3504       C  0.57244778  0.09351489  0.52018906     0.74210
Zr3505     Zr  0.55736182  0.05104192  0.57054242     2.54710
O3506       O  0.53744992  0.01769885  0.53197014    -0.79000
O3507       O  0.50341457  0.04866205  0.56218307    -0.92420
Zr3508     Zr  0.64299187  0.05204511  0.60984594     2.64680
O3509       O  0.65610671  0.00943803  0.58641363    -0.97370
O3510       O  0.69366483  0.06451502  0.63455881    -0.79430
O3511       O  0.59464549  0.03285268  0.60451904    -0.82790
O3512       O  0.60598115  0.07060890  0.57451956    -2.17500
O3513       O  0.54394943  0.16002256  0.60930437    -0.66180
O3514       O  0.57873245  0.16793381  0.58461964    -0.50750
C3515       C  0.55984720  0.17676155  0.59775896     0.72590
O3516       O  0.61232482  0.10296686  0.69776884    -0.59090
O3517       O  0.58609392  0.05825895  0.69151855    -0.51070
C3518       C  0.59648539  0.08224481  0.70536499     0.74390
O3519       O  0.66255022  0.15042255  0.63902115    -0.70480
O3520       O  0.64456836  0.16071768  0.59529307    -0.49160
C3521       C  0.66423741  0.16421243  0.61744050     0.75780
O3522       O  0.01621675  0.07661193  0.65087413    -0.65810
O3523       O  0.53723544  0.03838267  0.66086603    -0.53010
C3524       C  0.51610691  0.05534281  0.66084166     0.74160
Zr3525     Zr  0.54255396  0.10907175  0.62121926     2.77540
O3526       O  0.52637156  0.13842006  0.65481190    -0.96560
O3527       O  0.99529110  0.10596861  0.59035703    -0.77380
Zr3528     Zr  0.63028134  0.11425857  0.65774854     2.70070
O3529       O  0.62971514  0.16163572  0.68053870    -0.78630
O3530       O  0.67619230  0.10318458  0.68840716    -0.97710
Zr3531     Zr  0.58134641  0.04075249  0.64509111     2.21500
Zr3532     Zr  0.60503049  0.12216983  0.58268074     2.11130
O3533       O  0.59210651  0.13078874  0.62467319    -2.46400
O3534       O  0.58178582  0.09205140  0.65316123    -0.78420
O3535       O  0.55530983  0.10211251  0.57897900    -0.70620
O3536       O  0.63082976  0.06245080  0.65103259    -2.31580
O3537       O  0.54271999  0.05810526  0.61102104    -2.27780
O3538       O  0.64281653  0.10350498  0.61698696    -0.72380
H3539       H  0.61070353  0.06555498  0.55778767     0.79620
H3540       H  0.64449932  0.05458405  0.66589640     0.80710
H3541       H  0.59420700  0.15123687  0.63038074     0.82930
H3542       H  0.52397150  0.04766609  0.61041401     0.80540
H3543       H  0.69577373  0.05376231  0.65128441     0.43570
H3544       H  0.69180416  0.11084759  0.67976885     0.42540
H3545       H  0.60887004  0.16324748  0.68153732     0.42220
H3546       H  0.54356928  0.15213602  0.66279726     0.40160
H3547       H  0.98280339  0.09102690  0.59698686     0.43290
H3548       H  0.99736491  0.03180385  0.56802087     0.38070
H3549       H  0.55479727  0.51276023  0.52483729     0.44190
H3550       H  0.64549424  0.01103961  0.56752056     0.40600
H3551       H  0.01131931  0.14776601  0.64549558     0.45520
H3552       H  0.49719200  0.06241827  0.54765349     0.44250
H3553       H  0.67728428  0.01325276  0.58656288     0.44380
H3554       H  0.67751604  0.11674318  0.70404437     0.44740
O3555       O  0.53087126  0.48574049  0.83052690    -0.74130
O3556       O  0.56474112  0.47944510  0.86767024    -0.53040
C3557       C  0.55127656  0.47094969  0.84356018     0.79600
O3558       O  0.64380326  0.08045998  0.82887511    -0.58730
O3559       O  0.61654493  0.11886956  0.81188525    -0.51760
C3560       C  0.64002898  0.10355722  0.81541502     0.71610
O3561       O  0.63566389  0.51166484  0.88410489    -0.73290
O3562       O  0.60533359  0.50409799  0.91260380    -0.53850
C3563       C  0.62762307  0.49855333  0.90331449     0.77610
O3564       O  0.54591332  0.05485431  0.77061849    -0.58430
O3565       O  0.56294341  0.10299409  0.77637390    -0.51550
C3566       C  0.55618662  0.07866096  0.76236145     0.74210
Zr3567     Zr  0.53792887  0.03622613  0.81254059     2.54710
O3568       O  0.55689718  0.00334187  0.78353286    -0.79000
O3569       O  0.48903700  0.03431128  0.78266415    -0.92420
Zr3570     Zr  0.61967642  0.05486216  0.85776938     2.64680
O3571       O  0.63938003  0.01844816  0.83216962    -0.97370
O3572       O  0.66747446  0.07214461  0.88602593    -0.79430
O3573       O  0.57567263  0.02592630  0.85022193    -0.82790
O3574       O  0.58222194  0.06539768  0.81985703    -2.17500
O3575       O  0.49956210  0.13580682  0.84629226    -0.66180
O3576       O  0.51622159  0.13618164  0.80873639    -0.50750
C3577       C  0.49604284  0.14174298  0.82199378     0.72590
O3578       O  0.57832250  0.09368339  0.94062426    -0.59090
O3579       O  0.56667769  0.04417213  0.93725263    -0.51070
C3580       C  0.57187365  0.06926221  0.95026974     0.74390
O3581       O  0.59678697  0.15834440  0.88329973    -0.70480
O3582       O  0.58377928  0.16246303  0.83788968    -0.49160
C3583       C  0.59284522  0.17281409  0.86177714     0.75780
O3584       O  0.98419742  0.05398595  0.89027074    -0.65810
O3585       O  0.51334127  0.01878646  0.90493237    -0.53010
C3586       C  0.98963934  0.02975694  0.90241846     0.74160
Zr3587     Zr  0.50737013  0.08763533  0.86147318     2.77540
O3588       O  0.48618287  0.11473119  0.89323452    -0.96560
O3589       O  0.95808709  0.07433048  0.83017262    -0.77380
Zr3590     Zr  0.59016105  0.11012752  0.90038992     2.70070
O3591       O  0.58860138  0.15001368  0.93237521    -0.78630
O3592       O  0.64252776  0.11133919  0.92253100    -0.97710
Zr3593     Zr  0.55816910  0.03013182  0.88977067     2.21500
Zr3594     Zr  0.56688845  0.11375618  0.82374482     2.11130
O3595       O  0.55072146  0.11969512  0.86463295    -2.46400
O3596       O  0.54681286  0.07912992  0.89713945    -0.78420
O3597       O  0.52267962  0.08339679  0.81999724    -0.70620
O3598       O  0.60270163  0.06116465  0.89695769    -2.31580
O3599       O  0.51924040  0.03950128  0.85221233    -2.27780
O3600       O  0.60679695  0.10418713  0.86113585    -0.72380
H3601       H  0.59119214  0.06286226  0.80493374     0.79620
H3602       H  0.61718951  0.05643240  0.91274397     0.80710
H3603       H  0.54682321  0.13984302  0.86795171     0.82930
H3604       H  0.00153549  0.02300430  0.85048768     0.80540
H3605       H  0.67016908  0.05980219  0.90184176     0.43570
H3606       H  0.65056927  0.13090961  0.91874130     0.42540
H3607       H  0.56775758  0.15544343  0.92790387     0.42220
H3608       H  0.49782159  0.13385141  0.89681223     0.40160
H3609       H  0.95926775  0.08423070  0.81355060     0.43290
H3610       H  0.98592005  0.02873390  0.76963761     0.38070
H3611       H  0.57991510  0.49980570  0.79217059     0.44190
H3612       H  0.63194371  0.02323612  0.81324532     0.40600
H3613       H  0.96396935  0.11668415  0.88072491     0.45520
H3614       H  0.48168294  0.05400206  0.78481096     0.44250
H3615       H  0.66090801  0.02369935  0.83605441     0.44380
H3616       H  0.64295817  0.11263243  0.94184023     0.44740
C3617       C  0.58833920  0.08757355  0.73114510    -0.15270
C3618       C  0.56274218  0.07623572  0.73573955    -0.30450
H3619       H  0.60301134  0.10206039  0.74621694     0.13750
H3620       H  0.54834930  0.06139615  0.72081760     0.14330
C3621       C  0.56993886  0.07056900  0.97819318    -0.15270
C3622       C  0.57110152  0.09283874  0.49150350    -0.30450
H3623       H  0.56559684  0.04985457  0.98696995     0.13750
H3624       H  0.57633053  0.11341661  0.48293903     0.14330
C3625       C  0.94588931  0.15587258  0.82560212    -0.15270
C3626       C  0.96550392  0.15195545  0.80953216    -0.30450
H3627       H  0.95385272  0.15442738  0.84704003     0.13750
H3628       H  0.95836751  0.15361363  0.78804206     0.14330
C3629       C  0.66647944  0.11343698  0.80571711    -0.15270
C3630       C  0.68976679  0.09581817  0.80722983    -0.30450
H3631       H  0.66903307  0.13658506  0.80161197     0.13750
H3632       H  0.68703555  0.07230702  0.80973130     0.14330
C3633       C  0.79555349  0.16265836  0.91473223    -0.15270
C3634       C  0.81745823  0.17443299  0.93467377    -0.30450
H3635       H  0.77409058  0.15573343  0.91818739     0.13750
H3636       H  0.83862602  0.18213818  0.93104515     0.14330
C3637       C  0.81280049  0.14383657  0.68124101    -0.15270
C3638       C  0.78785257  0.13667473  0.66207157    -0.30450
H3639       H  0.83430946  0.14534994  0.67636817     0.13750
H3640       H  0.76631024  0.13537507  0.66687950     0.14330
C3641       C  0.91350645  0.12611519  0.55376285    -0.15270
C3642       C  0.89952075  0.10891896  0.53184893    -0.30450
H3643       H  0.93507981  0.12043619  0.56503510     0.13750
H3644       H  0.91030604  0.08998154  0.52627402     0.14330
C3645       C  0.68151141  0.08984578  0.53988030    -0.15270
C3646       C  0.70133330  0.06881024  0.54042475    -0.30450
H3647       H  0.68614928  0.11118072  0.53241610     0.13750
H3648       H  0.69676739  0.04701001  0.54710795     0.14330
C3649       C  0.55492024  0.43687901  0.80332058    -0.15270
C3650       C  0.56258810  0.44605943  0.82977905    -0.30450
H3651       H  0.56819504  0.42027703  0.79720690     0.13750
H3652       H  0.58130739  0.43580471  0.84197310     0.14330
C3653       C  0.00427214  0.01764074  0.69458381    -0.15270
C3654       C  0.99671598  0.04003490  0.67777471    -0.30450
H3655       H  0.02700209  0.01126018  0.69844342     0.13750
H3656       H  0.47615569  0.05745033  0.67897619     0.14330
C3657       C  0.86859625  0.30521556  0.77113156    -0.15270
C3658       C  0.87826962  0.27711873  0.76617021    -0.30450
H3659       H  0.84880013  0.30661122  0.77870242     0.13750
H3660       H  0.89743111  0.27541567  0.75772049     0.14330
C3661       C  0.85494154  0.02579633  0.77081790    -0.15270
C3662       C  0.86300293  0.05444502  0.76434487    -0.30450
H3663       H  0.83780213  0.52260223  0.78305565     0.13750
H3664       H  0.88099044  0.05754995  0.75437711     0.14330
C3665       C  0.93736015  0.42574451  0.88462848    -0.15270
C3666       C  0.91320777  0.42274404  0.86371817    -0.30450
H3667       H  0.95904069  0.43183584  0.88126342     0.13750
H3668       H  0.89152462  0.41681757  0.86715313     0.14330
C3669       C  0.90863165  0.41707594  0.61359229    -0.15270
C3670       C  0.93547858  0.42393750  0.63018199    -0.30450
H3671       H  0.89171149  0.40409568  0.62033700     0.13750
H3672       H  0.95247090  0.43676368  0.62341524     0.14330
C3673       C  0.54513141  0.45625429  0.55281394    -0.15270
C3674       C  0.54261239  0.46088309  0.57859319    -0.30850
H3675       H  0.56403800  0.46588164  0.54640331     0.13750
H3676       H  0.52456280  0.44999211  0.58534175     0.14330
C3677       C  0.96819572  0.01769189  0.91720706    -0.15270
C3678       C  0.97437644  0.01963046  0.94409901    -0.30450
H3679       H  0.94984186  0.00312838  0.90633635     0.13750
H3680       H  0.99536942  0.53126112  0.95315937     0.14330
C3681       C  0.86118133  0.30556526  0.53978927    -0.15270
C3682       C  0.86932312  0.27816288  0.53623059    -0.30450
H3683       H  0.84120067  0.30870938  0.54675526     0.13750
H3684       H  0.88876040  0.27509234  0.52839630     0.14330
C3685       C  0.80498137  0.45150741  0.98244802    -0.15270
C3686       C  0.79856374  0.42529748  0.96816372    -0.30450
H3687       H  0.78899531  0.46829505  0.97865848     0.13750
H3688       H  0.77765535  0.42189044  0.95348961     0.14330
C3689       C  0.67742924  0.19690619  0.97656965    -0.15270
C3690       C  0.68062250  0.19134683  0.00310458    -0.30450
H3691       H  0.68165666  0.17997625  0.96295578     0.13750
H3692       H  0.67571139  0.20801306  0.01665343     0.14330
C3693       C  0.75582110  0.27222043  0.88475188    -0.15270
C3694       C  0.74490002  0.26043486  0.85994245    -0.30450
H3695       H  0.77935757  0.27269794  0.89386828     0.13750
H3696       H  0.72113339  0.26015325  0.85177575     0.14330
C3697       C  0.72461214  0.40452166  0.01243307    -0.15270
C3698       C  0.71000299  0.39003342  0.02889018    -0.30450
H3699       H  0.74528382  0.41703013  0.02111823     0.13750
H3700       H  0.71937434  0.39137746  0.05028234     0.14330
C3701       C  0.53047292  0.35809003  0.98132032    -0.15270
C3702       C  0.55319434  0.37561524  0.97696361    -0.30450
H3703       H  0.53098053  0.33428092  0.98000621     0.13750
H3704       H  0.55326426  0.39936224  0.97975792     0.14330
C3705       C  0.58476073  0.21654723  0.88376526    -0.15270
C3706       C  0.59673404  0.20394198  0.86542708    -0.30450
H3707       H  0.56969093  0.20408536  0.89325952     0.13750
H3708       H  0.61076066  0.21597157  0.85464230     0.14330
C3709       C  0.63381335  0.44900111  0.89515756    -0.15270
C3710       C  0.64118645  0.47200311  0.91236461    -0.30450
H3711       H  0.62473838  0.45226312  0.87405026     0.13750
H3712       H  0.64909361  0.46919893  0.93367230     0.14330
C3713       C  0.63986071  0.29396159  0.79560442    -0.15270
C3714       C  0.65458330  0.27892925  0.81645725    -0.30450
H3715       H  0.62354270  0.30895563  0.79886271     0.13750
H3716       H  0.67025275  0.26312945  0.81336528     0.14330
C3717       C  0.70130908  0.31679338  0.58624958    -0.15270
C3718       C  0.72455326  0.30500441  0.60267781    -0.30450
H3719       H  0.69949574  0.31674879  0.56489606     0.13750
H3720       H  0.74175908  0.29549245  0.59471504     0.14330
C3721       C  0.67532763  0.20063019  0.76040568    -0.15270
C3722       C  0.66394019  0.19717045  0.73380385    -0.30450
H3723       H  0.66892393  0.21872324  0.77160492     0.13750
H3724       H  0.67089488  0.17880978  0.72330614     0.14330
C3725       C  0.69950166  0.19953359  0.59850193    -0.15270
C3726       C  0.69276593  0.18185305  0.61782017    -0.30450
H3727       H  0.68193710  0.20740597  0.58300287     0.13750
H3728       H  0.71118084  0.17572034  0.63353437     0.14330
C3729       C  0.77478724  0.39292985  0.72203300    -0.15270
C3730       C  0.79393453  0.39375066  0.70608679    -0.30450
H3731       H  0.78245032  0.39858418  0.74324393     0.13750
H3732       H  0.78644369  0.38675023  0.68513526     0.14330
C3733       C  0.53875526  0.35472840  0.73275718    -0.15270
C3734       C  0.54035925  0.32898122  0.72030610    -0.30450
H3735       H  0.55800868  0.37026906  0.73728696     0.13750
H3736       H  0.52149395  0.31306946  0.71514788     0.14330
C3737       C  0.56103859  0.20841981  0.60496191    -0.15270
C3738       C  0.56137042  0.21722572  0.63058763    -0.30450
H3739       H  0.56958348  0.22333274  0.59206549     0.13750
H3740       H  0.55468325  0.20164877  0.64399228     0.14330
C3741       C  0.64749700  0.46774921  0.66482067    -0.15270
C3742       C  0.66280600  0.44980369  0.65287023    -0.30450
H3743       H  0.63865666  0.46001090  0.68137131     0.13750
H3744       H  0.67217089  0.45709216  0.63651305     0.14330
O3745       O  0.64214980  0.90752002  0.16795615    -0.74130
O3746       O  0.68301853  0.90116653  0.15164920    -0.53040
C3747       C  0.66342156  0.91702605  0.15766103     0.79600
O3748       O  0.66885008  0.80934272  0.26680309    -0.58730
O3749       O  0.62551578  0.78293988  0.24756865    -0.51760
C3750       C  0.64535181  0.79353582  0.26804886     0.71610
O3751       O  0.73226476  0.86592448  0.23075649    -0.73290
O3752       O  0.73403344  0.87539161  0.18772537    -0.53850
C3753       C  0.74478315  0.87719653  0.21313174     0.77610
O3754       O  0.57850292  0.84778008  0.20101296    -0.58430
O3755       O  0.57459986  0.79848953  0.20748030    -0.51550
C3756       C  0.56587665  0.82460486  0.20838001     0.74210
Zr3757     Zr  0.61938481  0.86300405  0.18132690     2.54710
O3758       O  0.61514936  0.90203073  0.21321589    -0.79000
O3759       O  0.57735848  0.88154497  0.14994274    -0.92420
Zr3760     Zr  0.68873833  0.83332247  0.23178511     2.64680
O3761       O  0.68647911  0.87432945  0.26241832    -0.97370
O3762       O  0.73012310  0.81254385  0.26217794    -0.79430
O3763       O  0.67155529  0.86558788  0.19690869    -0.82790
O3764       O  0.63641155  0.83136796  0.21643070    -2.17500
O3765       O  0.58737523  0.76018758  0.12602146    -0.66180
O3766       O  0.58453277  0.74787371  0.16798652    -0.50750
C3767       C  0.57759808  0.74380973  0.14222812     0.72590
O3768       O  0.71296866  0.77861294  0.13959465    -0.59090
O3769       O  0.73008979  0.82619768  0.14584288    -0.51070
C3770       C  0.72564064  0.80175235  0.13217841     0.74390
O3771       O  0.67843153  0.73147523  0.20666411    -0.70480
O3772       O  0.63369599  0.73589016  0.21695260    -0.49160
C3773       C  0.65760848  0.72291904  0.21802148     0.75780
O3774       O  0.65806772  0.80529438  0.09973891    -0.65810
O3775       O  0.68277866  0.84936006  0.11161655    -0.53010
C3776       C  0.67817370  0.82506688  0.09776268     0.74160
Zr3777     Zr  0.62185397  0.80166127  0.12759038     2.77540
O3778       O  0.60121173  0.77798778  0.08366299    -0.96560
O3779       O  0.58598342  0.83524397  0.10509681    -0.77380
Zr3780     Zr  0.69237661  0.77052183  0.17891365     2.70070
O3781       O  0.70027686  0.72158830  0.16386959    -0.78630
O3782       O  0.74431413  0.77274018  0.20215462    -0.97710
Zr3783     Zr  0.69046023  0.85015981  0.15983989     2.21500
Zr3784     Zr  0.62007163  0.78249713  0.19895393     2.11130
O3785       O  0.64004434  0.76783763  0.16209645    -2.46400
O3786       O  0.67302438  0.80170178  0.14441599    -0.78420
O3787       O  0.60146352  0.81489428  0.16406324    -0.70620
O3788       O  0.70895927  0.81885735  0.19551701    -2.31580
O3789       O  0.63796858  0.85034572  0.14364361    -2.27780
O3790       O  0.67256462  0.78479834  0.21512225    -0.72380
H3791       H  0.62790654  0.83650728  0.23122155     0.79620
H3792       H  0.73024308  0.82104680  0.20029445     0.80710
H3793       H  0.63471144  0.74754855  0.15628452     0.82930
H3794       H  0.63293435  0.86422742  0.12969030     0.80540
H3795       H  0.74528851  0.81060895  0.25168281     0.43570
H3796       H  0.74454886  0.76359975  0.21938841     0.42540
H3797       H  0.68043516  0.71129526  0.16079753     0.42220
H3798       H  0.61525537  0.76303418  0.08149833     0.40160
H3799       H  0.56704190  0.82803387  0.10898281     0.43290
H3800       H  0.58597800  0.89135375  0.13633734     0.38070
H3801       H  0.63534998  0.90533367  0.22474255     0.44190
H3802       H  0.66621575  0.87236555  0.26539046     0.40600
H3803       H  0.60343778  0.79306477  0.07065682     0.45520
H3804       H  0.57104651  0.89788162  0.15998129     0.44250
H3805       H  0.69944818  0.86922323  0.27961052     0.44380
H3806       H  0.75363178  0.75915767  0.19173717     0.44740
O3807       O  0.57537420  0.83612291  0.45842975    -0.74130
O3808       O  0.60136945  0.88045685  0.46713285    -0.53040
C3809       C  0.57920768  0.86257562  0.46806172     0.79600
O3810       O  0.67586774  0.74891004  0.48357983    -0.58730
O3811       O  0.67283292  0.73212077  0.44062660    -0.51760
C3812       C  0.67518153  0.72819442  0.46605956     0.71610
O3813       O  0.68924946  0.84132055  0.01977089    -0.73290
O3814       O  0.66156497  0.88106468  0.50253386    -0.53850
C3815       C  0.68496930  0.86917985  0.01865198     0.77610
O3816       O  0.58715396  0.75737583  0.41397638    -0.58430
O3817       O  0.61846244  0.75858281  0.38690677    -0.51550
C3818       C  0.59824372  0.74579979  0.39615767     0.74210
Zr3819     Zr  0.59761167  0.80723938  0.42977752     2.54710
O3820       O  0.56013044  0.77953701  0.44669334    -0.79000
O3821       O  0.55714191  0.81909750  0.39301151    -0.92420
Zr3822     Zr  0.67217430  0.80144642  0.48466285     2.64680
O3823       O  0.63868397  0.79001373  0.51340757    -0.97370
O3824       O  0.71493031  0.78759064  0.51788552    -0.79430
O3825       O  0.62995998  0.82837633  0.46914374    -0.82790
O3826       O  0.63920455  0.77923036  0.44617969    -2.17500
O3827       O  0.64479608  0.81336699  0.34698007    -0.66180
O3828       O  0.66380010  0.77055431  0.36345965    -0.50750
C3829       C  0.65459019  0.78788011  0.34403400     0.72590
O3830       O  0.73163990  0.88549931  0.47065977    -0.59090
O3831       O  0.68960497  0.90846864  0.47052020    -0.51070
C3832       C  0.71562209  0.90158828  0.48212681     0.74390
O3833       O  0.74237300  0.81011738  0.41201283    -0.70480
O3834       O  0.71288745  0.76781125  0.39996327    -0.49160
C3835       C  0.73643134  0.78428767  0.40042977     0.75780
O3836       O  0.63284671  0.89958479  0.38502043    -0.65810
O3837       O  0.63648153  0.91493824  0.42832528    -0.53010
C3838       C  0.63306428  0.91918880  0.40331989     0.74160
Zr3839     Zr  0.64055590  0.84808601  0.38259353     2.77540
O3840       O  0.66321420  0.87451374  0.35121371    -0.96560
O3841       O  0.59201478  0.84800283  0.35197309    -0.77380
Zr3842     Zr  0.71729844  0.84454649  0.43591111     2.70070
O3843       O  0.73377666  0.88123822  0.40817159    -0.78630
O3844       O  0.76721512  0.83955037  0.46263044    -0.97710
Zr3845     Zr  0.64833441  0.87321567  0.45490243     2.21500
Zr3846     Zr  0.66650927  0.77610765  0.41202172     2.11130
O3847       O  0.68341884  0.82222375  0.39856050    -2.46400
O3848       O  0.67462179  0.87146389  0.42014543    -0.78420
O3849       O  0.62372077  0.80265778  0.39560920    -0.70620
O3850       O  0.68936326  0.84351268  0.46784298    -2.31580
O3851       O  0.61349742  0.85324537  0.41626307    -2.27780
O3852       O  0.70020002  0.79839201  0.45057071    -0.72380
H3853       H  0.63136508  0.76035567  0.45027837     0.79620
H3854       H  0.70506725  0.84906729  0.48279604     0.80710
H3855       H  0.69310668  0.82014290  0.38403053     0.82930
H3856       H  0.59713861  0.86567876  0.41088929     0.80540
H3857       H  0.73165230  0.80039652  0.01572813     0.43570
H3858       H  0.76853388  0.81818700  0.46540064     0.42540
H3859       H  0.72923801  0.87169401  0.39006371     0.42220
H3860       H  0.68028710  0.86312809  0.34957837     0.40160
H3861       H  0.58590752  0.82691969  0.34778639     0.43290
H3862       H  0.54335175  0.82923101  0.40171661     0.38070
H3863       H  0.57096973  0.77262690  0.46411720     0.44190
H3864       H  0.62606420  0.77284103  0.50428771     0.40600
H3865       H  0.64890425  0.87128102  0.33372383     0.45520
H3866       H  0.54669383  0.79986211  0.38646260     0.44250
H3867       H  0.65287992  0.78089176  0.03082729     0.44380
H3868       H  0.78034293  0.84409094  0.45046683     0.44740
O3869       O  0.49592146  0.94036126  0.03755873    -0.74130
O3870       O  0.51867409  0.94119156  0.00619027    -0.53040
C3871       C  0.52004659  0.94418004  0.03116680     0.79600
O3872       O  0.90122040  0.82835557  0.02610955    -0.58730
O3873       O  0.86400705  0.85597486  0.03327640    -0.51760
C3874       C  0.87649176  0.83150759  0.03300031     0.71610
O3875       O  0.48788646  0.85257652  0.49860440    -0.73290
O3876       O  0.50183813  0.89360432  0.47897960    -0.53850
C3877       C  0.50585025  0.86780865  0.48767213     0.77610
O3878       O  0.91633796  0.94404654  0.07799830    -0.58430
O3879       O  0.88160566  0.90713576  0.06904853    -0.51550
C3880       C  0.90133139  0.92324017  0.08557617     0.74210
Zr3881     Zr  0.95321264  0.93530322  0.05363945     2.54710
O3882       O  0.98111592  0.90951850  0.09123554    -0.79000
O3883       O  0.97456336  0.97790292  0.08273300    -0.92420
Zr3884     Zr  0.93904673  0.85888343  0.01082987     2.64680
O3885       O  0.96896983  0.83789325  0.05039964    -0.97370
O3886       O  0.93440045  0.81391966  0.48497156    -0.79430
O3887       O  0.96787539  0.90363413  0.02208946    -0.82790
O3888       O  0.92419402  0.89028631  0.04266135    -2.17500
O3889       O  0.85161535  0.97723239  0.99184802    -0.66180
O3890       O  0.84249710  0.94342668  0.02080577    -0.50750
C3891       C  0.83388464  0.95907720  0.00051391     0.72590
O3892       O  0.90814284  0.91433393  0.41569873    -0.59090
O3893       O  0.95646040  0.92959447  0.43245887    -0.51070
C3894       C  0.93358113  0.92379562  0.41291128     0.74390
O3895       O  0.83219274  0.90038009  0.45118817    -0.70480
O3896       O  0.82856931  0.88969012  0.49292684    -0.49160
C3897       C  0.81895738  0.90155914  0.47067934     0.75780
O3898       O  0.93584202  0.50040344  0.46332687    -0.65810
O3899       O  0.97204263  0.98019191  0.46505234    -0.53010
C3900       C  0.96152605  0.49787724  0.45808908     0.74160
Zr3901     Zr  0.90239417  0.97749880  0.49415198     2.77540
O3902       O  0.87920795  0.02038153  0.47317165    -0.96560
O3903       O  0.92227726  0.51324334  0.02857313    -0.77380
Zr3904     Zr  0.88596271  0.89873367  0.45118982     2.70070
O3905       O  0.85220390  0.90076903  0.40747537    -0.78630
O3906       O  0.88384130  0.84664137  0.43858177    -0.97710
Zr3907     Zr  0.96452953  0.93259178  0.48163819     2.21500
Zr3908     Zr  0.87632190  0.90522035  0.02120137     2.11130
O3909       O  0.87615543  0.93187796  0.48240647    -2.46400
O3910       O  0.91520178  0.94476651  0.46186680    -0.78420
O3911       O  0.90561347  0.95054453  0.03298933    -0.70620
O3912       O  0.93556304  0.88683040  0.46941262    -2.31580
O3913       O  0.95354349  0.96231369  0.01394182    -2.27780
O3914       O  0.88933462  0.87217668  0.49035974    -0.72380
H3915       H  0.92389490  0.87961630  0.05855946     0.79620
H3916       H  0.94270809  0.87547225  0.45636105     0.80710
H3917       H  0.85872940  0.93883942  0.47144548     0.82930
H3918       H  0.96642388  0.98008294  0.01757345     0.80540
H3919       H  0.93567399  0.81909532  0.46671165     0.43570
H3920       H  0.86277226  0.83999732  0.43629290     0.42540
H3921       H  0.84793977  0.92179022  0.40564836     0.42220
H3922       H  0.86244217  0.01235385  0.45874459     0.40160
H3923       H  0.90417570  0.51645617  0.03498078     0.43290
H3924       H  0.98982666  0.98696949  0.07446399     0.38070
H3925       H  0.49246149  0.89561427  0.08290400     0.44190
H3926       H  0.95576560  0.83574518  0.06286249     0.40600
H3927       H  0.87479530  0.52848505  0.48008768     0.45520
H3928       H  0.98566634  0.96986568  0.09953481     0.44250
H3929       H  0.97144947  0.81746241  0.04461540     0.44380
H3930       H  0.88703137  0.84623048  0.42023137     0.44740
O3931       O  0.51458957  0.93800326  0.29754961    -0.74130
O3932       O  0.52499092  0.94057969  0.25657485    -0.53040
C3933       C  0.53257869  0.94091409  0.28243672     0.79600
O3934       O  0.90952034  0.83195466  0.26330107    -0.58730
O3935       O  0.87324216  0.86097595  0.27089878    -0.51760
C3936       C  0.88428109  0.83486640  0.26809155     0.71610
O3937       O  0.49469041  0.85583431  0.24763191    -0.73290
O3938       O  0.50809828  0.89119366  0.22140204    -0.53850
C3939       C  0.51192428  0.86735106  0.23388474     0.77610
O3940       O  0.94080790  0.93409021  0.33211855    -0.58430
O3941       O  0.89162931  0.92157955  0.31664552    -0.51550
C3942       C  0.91501039  0.92713202  0.33574593     0.74210
Zr3943     Zr  0.96368066  0.94311268  0.29507884     2.54710
O3944       O  0.99598227  0.94650137  0.33980812    -0.79000
O3945       O  0.96363094  0.99526460  0.30454259    -0.92420
Zr3946     Zr  0.94694872  0.86615916  0.25743483     2.64680
O3947       O  0.97133609  0.84865452  0.30085379    -0.97370
O3948       O  0.94496827  0.81850420  0.23427199    -0.79430
O3949       O  0.97860626  0.90821440  0.26680002    -0.82790
O3950       O  0.93203804  0.89989991  0.28755892    -2.17500
O3951       O  0.88524141  0.00488586  0.24764885    -0.66180
O3952       O  0.86610716  0.97147673  0.27262690    -0.50750
C3953       C  0.86932859  0.99846925  0.26380615     0.72590
O3954       O  0.92166712  0.89721049  0.16438366    -0.59090
O3955       O  0.96276112  0.92829651  0.17566242    -0.51070
C3956       C  0.94073587  0.91533784  0.15839561     0.74390
O3957       O  0.84230151  0.89681719  0.20028838    -0.70480
O3958       O  0.83527066  0.90771805  0.24188696    -0.49160
C3959       C  0.82583434  0.89972273  0.21709787     0.75780
O3960       O  0.95650870  0.50586126  0.20726505    -0.65810
O3961       O  0.99412212  0.97467800  0.20965309    -0.53010
C3962       C  0.98143940  0.49867596  0.20264255     0.74160
Zr3963     Zr  0.92118623  0.98158132  0.23093227     2.77540
O3964       O  0.88794551  0.99416041  0.18932184    -0.96560
O3965       O  0.93248988  0.53279867  0.24692653    -0.77380
Zr3966     Zr  0.89445361  0.90330615  0.19792656     2.70070
O3967       O  0.86541749  0.92597103  0.15893235    -0.78630
O3968       O  0.87893615  0.85360028  0.17959274    -0.97710
Zr3969     Zr  0.97695649  0.92936767  0.22499055     2.21500
Zr3970     Zr  0.88488260  0.91825275  0.26782003     2.11130
O3971       O  0.88468165  0.94123488  0.22615709    -2.46400
O3972       O  0.92972149  0.94420241  0.20279070    -0.78420
O3973       O  0.91873136  0.96049177  0.27289877    -0.70620
O3974       O  0.94303192  0.88714794  0.21583070    -2.31580
O3975       O  0.96706371  0.96616175  0.25473254    -2.27780
O3976       O  0.89862618  0.88223532  0.23923725    -0.72380
H3977       H  0.93170907  0.88950346  0.30357200     0.79620
H3978       H  0.94875705  0.87312951  0.20384201     0.80710
H3979       H  0.86549431  0.94851800  0.21882183     0.82930
H3980       H  0.98215602  0.98205190  0.25813244     0.80540
H3981       H  0.93160257  0.82075592  0.21652841     0.43570
H3982       H  0.87114584  0.84369170  0.19363758     0.42540
H3983       H  0.87791199  0.94337283  0.15624566     0.42220
H3984       H  0.86806092  0.99378926  0.19315775     0.40160
H3985       H  0.93333031  0.53281667  0.26631563     0.43290
H3986       H  0.98491126  0.00109989  0.30817337     0.38070
H3987       H  0.50048803  0.92772049  0.34430788     0.44190
H3988       H  0.95524569  0.83904077  0.30782048     0.40600
H3989       H  0.89244711  0.51555223  0.18774076     0.45520
H3990       H  0.95863695  0.99675636  0.32217684     0.44250
H3991       H  0.98278733  0.83221048  0.29662214     0.44380
H3992       H  0.86124590  0.85601774  0.16502608     0.44740
O3993       O  0.74207341  0.71572910  0.08262189    -0.74130
O3994       O  0.74032925  0.67163932  0.10100541    -0.53040
C3995       C  0.72986873  0.69629143  0.09601700     0.79600
O3996       O  0.78731181  0.66928214  0.46458844    -0.58730
O3997       O  0.83533441  0.68481006  0.48080412    -0.51760
C3998       C  0.81324332  0.67658615  0.46168370     0.71610
O3999       O  0.71119956  0.65361297  0.50010555    -0.73290
O4000       O  0.70787139  0.66550003  0.04125509    -0.53850
C4001       C  0.69856366  0.66690166  0.01549464     0.77610
O4002       O  0.82940764  0.75295175  0.05322980    -0.58430
O4003       O  0.85828424  0.72697641  0.03148887    -0.51550
C4004       C  0.85088791  0.75094972  0.04123282     0.74210
Zr4005     Zr  0.79125941  0.71996602  0.06612617     2.54710
O4006       O  0.76843446  0.76511885  0.05107684    -0.79000
O4007       O  0.80997157  0.74573027  0.10929988    -0.92420
Zr4008     Zr  0.75874459  0.67177360  0.99831089     2.64680
O4009       O  0.74294967  0.71933091  0.48130671    -0.97370
O4010       O  0.72845171  0.65582698  0.45472679    -0.79430
O4011       O  0.75325714  0.68789473  0.04131698    -0.82790
O4012       O  0.79701635  0.70480167  0.02239838    -2.17500
O4013       O  0.88775485  0.64304595  0.08587933    -0.66180
O4014       O  0.88980459  0.67112283  0.05091533    -0.50750
C4015       C  0.89780329  0.64916666  0.06516583     0.72590
O4016       O  0.75011701  0.57358978  0.03110790    -0.59090
O4017       O  0.74151918  0.59486840  0.06824516    -0.51070
C4018       C  0.73319290  0.57862961  0.04719832     0.74390
O4019       O  0.84787393  0.59364076  0.02007547    -0.70480
O4020       O  0.86270985  0.63829510  0.00771786    -0.49160
C4021       C  0.86830882  0.61309183  0.01741465     0.75780
O4022       O  0.81501234  0.63808372  0.12992917    -0.65810
O4023       O  0.76474789  0.63606389  0.11561025    -0.53010
C4024       C  0.78893263  0.63558576  0.13395951     0.74160
Zr4025     Zr  0.83881852  0.65219488  0.09549233     2.77540
O4026       O  0.86350537  0.61724775  0.12683823    -0.96560
O4027       O  0.86649761  0.69195095  0.12489747    -0.77380
Zr4028     Zr  0.79780489  0.60025716  0.02867496     2.70070
O4029       O  0.81123375  0.55376663  0.04892459    -0.78630
O4030       O  0.78518370  0.57815477  0.98358191    -0.97710
Zr4031     Zr  0.75529411  0.64557605  0.06771664     2.21500
Zr4032     Zr  0.83939889  0.67623098  0.02759877     2.11130
O4033       O  0.83513992  0.63378394  0.05278457    -2.46400
O4034       O  0.79837915  0.61834279  0.07305531    -0.78420
O4035       O  0.83694271  0.69531224  0.07074021    -0.70620
O4036       O  0.75635045  0.62905213  0.02339709    -2.31580
O4037       O  0.79525070  0.67797422  0.09154357    -2.27780
O4038       O  0.80032013  0.64317405  0.00333694    -0.72380
H4039       H  0.79950912  0.72160786  0.01196882     0.79620
H4040       H  0.73932006  0.61705205  0.01408579     0.80710
H4041       H  0.85045360  0.62051304  0.05704472     0.82930
H4042       H  0.79347578  0.68441028  0.10907262     0.80540
H4043       H  0.73100418  0.63443325  0.45338448     0.43570
H4044       H  0.79865307  0.58778670  0.47489551     0.42540
H4045       H  0.82649920  0.55946156  0.06539707     0.42220
H4046       H  0.86791469  0.60099679  0.11548101     0.40160
H4047       H  0.88576733  0.69396209  0.11988061     0.43290
H4048       H  0.79295315  0.74504063  0.11780964     0.38070
H4049       H  0.77286596  0.76777438  0.03336304     0.44190
H4050       H  0.76087435  0.73157846  0.48050210     0.40600
H4051       H  0.88303829  0.62710639  0.13530202     0.45520
H4052       H  0.81248634  0.76661603  0.10495335     0.44250
H4053       H  0.73325766  0.71488240  0.46227745     0.44380
H4054       H  0.79256760  0.55815854  0.98565737     0.44740
O4055       O  0.78360592  0.75116268  0.33647898    -0.74130
O4056       O  0.75009476  0.71557284  0.34290093    -0.53040
C4057       C  0.76146221  0.74190104  0.34588726     0.79600
O4058       O  0.78676976  0.65462977  0.21408160    -0.58730
O4059       O  0.83712298  0.65922699  0.22532173    -0.51760
C4060       C  0.81213045  0.65276127  0.20871345     0.71610
O4061       O  0.71935569  0.68653220  0.25337911    -0.73290
O4062       O  0.71471788  0.68776675  0.29644881    -0.53850
C4063       C  0.70458804  0.69047927  0.27113579     0.77610
O4064       O  0.84639956  0.75514136  0.28824428    -0.58430
O4065       O  0.86834130  0.72085574  0.26707591    -0.51550
C4066       C  0.86373505  0.74861457  0.27375663     0.74210
Zr4067     Zr  0.81431011  0.72905716  0.30833901     2.54710
O4068       O  0.79108462  0.77118352  0.28615803    -0.79000
O4069       O  0.85089767  0.75662622  0.34325831    -0.92420
Zr4070     Zr  0.76782607  0.67556971  0.24977370     2.64680
O4071       O  0.76374488  0.71492584  0.21892455    -0.97370
O4072       O  0.72851075  0.64908828  0.21672104    -0.79430
O4073       O  0.76853605  0.70509910  0.28890041    -0.82790
O4074       O  0.81295112  0.70220887  0.26679012    -2.17500
O4075       O  0.89823796  0.65985245  0.33702094    -0.66180
O4076       O  0.90111751  0.66256327  0.29351052    -0.50750
C4077       C  0.91313626  0.66055859  0.31841537     0.72590
O4078       O  0.73903362  0.59607492  0.30040353    -0.59090
O4079       O  0.72546893  0.63517532  0.32236126    -0.51070
C4080       C  0.72010509  0.60993269  0.31045205     0.74390
O4081       O  0.82465656  0.57735111  0.27961224    -0.70480
O4082       O  0.85834818  0.60946663  0.26691613    -0.49160
C4083       C  0.84779916  0.58248064  0.27079688     0.75780
O4084       O  0.82407110  0.66173433  0.38329336    -0.65810
O4085       O  0.77369968  0.66343540  0.36919707    -0.53010
C4086       C  0.79785056  0.66241218  0.38723058     0.74160
Zr4087     Zr  0.84706812  0.66046007  0.34593727     2.77540
O4088       O  0.86389653  0.61538781  0.36736854    -0.96560
O4089       O  0.88001897  0.68987821  0.38204086    -0.77380
Zr4090     Zr  0.78999639  0.60764507  0.29290465     2.70070
O4091       O  0.79738305  0.56859136  0.32468754    -0.78630
O4092       O  0.76420756  0.57726259  0.25389083    -0.97710
Zr4093     Zr  0.76255677  0.67233746  0.32210216     2.21500
Zr4094     Zr  0.84907775  0.66567782  0.27364348     2.11130
O4095       O  0.83902944  0.63227899  0.30648045    -2.46400
O4096       O  0.79819323  0.63601807  0.33294863    -0.78420
O4097       O  0.85261472  0.69477398  0.31398263    -0.70620
O4098       O  0.75656446  0.64428432  0.28159205    -2.31580
O4099       O  0.81010948  0.69580521  0.34049133    -2.27780
O4100       O  0.80177342  0.63905469  0.25978240    -0.72380
H4101       H  0.81542427  0.71538771  0.25302466     0.79620
H4102       H  0.73653456  0.63690939  0.27383470     0.80710
H4103       H  0.85389403  0.61813660  0.31101444     0.82930
H4104       H  0.81097709  0.70649362  0.35712156     0.80540
H4105       H  0.73237574  0.62811463  0.21961184     0.43570
H4106       H  0.77510459  0.58162770  0.23992917     0.42540
H4107       H  0.81799124  0.57244461  0.33520985     0.42220
H4108       H  0.88013699  0.60963523  0.35920223     0.40160
H4109       H  0.88585105  0.70764963  0.37337893     0.43290
H4110       H  0.84649321  0.75031393  0.36023376     0.38070
H4111       H  0.77706135  0.76260407  0.26991442     0.44190
H4112       H  0.78010619  0.71277784  0.20983472     0.40600
H4113       H  0.87389557  0.62186193  0.38592129     0.45520
H4114       H  0.84500849  0.77720069  0.34176363     0.44250
H4115       H  0.74570260  0.70875168  0.20506417     0.44380
H4116       H  0.76856353  0.55678801  0.25866762     0.44740
O4117       O  0.57370797  0.00274519  0.08116572    -0.74130
O4118       O  0.55669750  0.99260379  0.11702603    -0.53040
C4119       C  0.55957918  0.98537759  0.09332043     0.79600
O4120       O  0.66486469  0.56819868  0.07525379    -0.58730
O4121       O  0.64511800  0.61138574  0.06076966    -0.51760
C4122       C  0.66261156  0.59016044  0.06013892     0.71610
O4123       O  0.64985283  0.50638932  0.13532975    -0.73290
O4124       O  0.61388692  0.00080128  0.15816688    -0.53850
C4125       C  0.63725206  0.99310157  0.15147848     0.77610
O4126       O  0.56540528  0.57195699  0.02940480    -0.58430
O4127       O  0.58676760  0.61839440  0.03635746    -0.51550
C4128       C  0.57549674  0.59571394  0.02127681     0.74210
Zr4129     Zr  0.55783154  0.55039700  0.06933340     2.54710
O4130       O  0.54365472  0.51922715  0.02867538    -0.79000
O4131       O  0.50390252  0.54533248  0.05338275    -0.92420
Zr4132     Zr  0.64287511  0.55097346  0.10997084     2.64680
O4133       O  0.65698083  0.50923300  0.08611367    -0.97370
O4134       O  0.69327420  0.56425554  0.13497181    -0.79430
O4135       O  0.59460180  0.53000322  0.10269916    -0.82790
O4136       O  0.60656746  0.57026701  0.07476520    -2.17500
O4137       O  0.54383530  0.65849362  0.11013278    -0.66180
O4138       O  0.57859190  0.66673416  0.08554607    -0.50750
C4139       C  0.55950162  0.67537916  0.09845286     0.72590
O4140       O  0.60665222  0.59430263  0.19751874    -0.59090
O4141       O  0.59061069  0.54568464  0.19069481    -0.51070
C4142       C  0.59570809  0.56987404  0.20480815     0.74390
O4143       O  0.66196453  0.64721588  0.14221223    -0.70480
O4144       O  0.64463127  0.65976647  0.09897488    -0.49160
C4145       C  0.66426196  0.66191753  0.12114821     0.75780
O4146       O  0.01432713  0.57955552  0.14978053    -0.65810
O4147       O  0.53714631  0.53575049  0.16113676    -0.53010
C4148       C  0.51705293  0.55368199  0.16211118     0.74160
Zr4149     Zr  0.54185592  0.60711755  0.12125965     2.77540
O4150       O  0.52358662  0.63635824  0.15364073    -0.96560
O4151       O  0.99463752  0.60648704  0.08856450    -0.77380
Zr4152     Zr  0.62801489  0.61101229  0.15984928     2.70070
O4153       O  0.62558107  0.65722324  0.18385981    -0.78630
O4154       O  0.67302374  0.60135277  0.19249488    -0.97710
Zr4155     Zr  0.57991200  0.53729508  0.14292769     2.21500
Zr4156     Zr  0.60544848  0.62147425  0.08457717     2.11130
O4157       O  0.59138398  0.62927473  0.12626588    -2.46400
O4158       O  0.57953301  0.58824745  0.15367438    -0.78420
O4159       O  0.55555185  0.60116316  0.07939498    -0.70620
O4160       O  0.62923123  0.55969035  0.15071405    -2.31580
O4161       O  0.54190329  0.55645821  0.10947012    -2.27780
O4162       O  0.64203692  0.60193852  0.11929161    -0.72380
H4163       H  0.61188033  0.56580631  0.05818226     0.79620
H4164       H  0.64254768  0.55136472  0.16554527     0.80710
H4165       H  0.59338046  0.64967764  0.13216305     0.82930
H4166       H  0.52318005  0.54596025  0.10879328     0.80540
H4167       H  0.69467440  0.55548287  0.15256798     0.43570
H4168       H  0.68909452  0.60658171  0.18349095     0.42540
H4169       H  0.60471369  0.65755065  0.18516350     0.42220
H4170       H  0.54023626  0.65062120  0.16183233     0.40160
H4171       H  0.98162841  0.59247225  0.09562767     0.43290
H4172       H  0.99620215  0.52916712  0.05072191     0.38070
H4173       H  0.55734384  0.01344979  0.02430904     0.44190
H4174       H  0.64683477  0.51127045  0.06715317     0.40600
H4175       H  0.00884540  0.64914199  0.14232966     0.45520
H4176       H  0.49891306  0.52425888  0.04835815     0.44250
H4177       H  0.67826120  0.51329362  0.08681559     0.44380
H4178       H  0.67475875  0.61696422  0.20662157     0.44740
O4179       O  0.53422219  0.98901173  0.32036234    -0.74130
O4180       O  0.56420890  0.98359510  0.36058059    -0.53040
C4181       C  0.55479362  0.97578853  0.33549697     0.79600
O4182       O  0.64453418  0.58292637  0.33072012    -0.58730
O4183       O  0.61670665  0.62070668  0.31302409    -0.51760
C4184       C  0.64042514  0.60570354  0.31686914     0.71610
O4185       O  0.63163614  0.01260659  0.38440668    -0.73290
O4186       O  0.59722560  0.00198640  0.40859603    -0.53850
C4187       C  0.62140032  0.99806543  0.40172691     0.77610
O4188       O  0.55367630  0.56158107  0.27072150    -0.58430
O4189       O  0.56133281  0.61121456  0.27756084    -0.51550
C4190       C  0.56070770  0.58746120  0.26349282     0.74210
Zr4191     Zr  0.53819089  0.53980083  0.30935764     2.54710
O4192       O  0.54043007  0.50458077  0.27372517    -0.79000
O4193       O  0.48871462  0.54613077  0.28255312    -0.92420
Zr4194     Zr  0.61947238  0.55619677  0.35806964     2.64680
O4195       O  0.63865739  0.51948251  0.33238455    -0.97370
O4196       O  0.66707205  0.57306589  0.38691037    -0.79430
O4197       O  0.57472970  0.52904911  0.34782613    -0.82790
O4198       O  0.58333674  0.56810529  0.31945898    -2.17500
O4199       O  0.49877020  0.63631335  0.34719319    -0.66180
O4200       O  0.51678639  0.63907731  0.31045842    -0.50750
C4201       C  0.49609936  0.64373672  0.32333755     0.72590
O4202       O  0.57599666  0.59161709  0.44015457    -0.59090
O4203       O  0.56325352  0.54237639  0.43487278    -0.51070
C4204       C  0.56876447  0.56696068  0.44881784     0.74390
O4205       O  0.59843466  0.65771272  0.38565759    -0.70480
O4206       O  0.58551207  0.66365363  0.34054131    -0.49160
C4207       C  0.59550766  0.67283650  0.36461430     0.75780
O4208       O  0.98461073  0.55501103  0.38990443    -0.65810
O4209       O  0.51131430  0.51563900  0.40012523    -0.53010
C4210       C  0.98944816  0.52990336  0.40070835     0.74160
Zr4211     Zr  0.50600102  0.58719653  0.35994440     2.77540
O4212       O  0.47900023  0.61126552  0.38895833    -0.96560
O4213       O  0.95902606  0.57643153  0.32882528    -0.77380
Zr4214     Zr  0.58827789  0.60956513  0.40097763     2.70070
O4215       O  0.58330282  0.64876221  0.43241952    -0.78630
O4216       O  0.63989646  0.61025426  0.42534077    -0.97710
Zr4217     Zr  0.55661562  0.52960329  0.38690909     2.21500
Zr4218     Zr  0.56709434  0.61602452  0.32516379     2.11130
O4219       O  0.54940014  0.62028480  0.36530612    -2.46400
O4220       O  0.54494539  0.57805523  0.39572225    -0.78420
O4221       O  0.52242552  0.58589764  0.31897026    -0.70620
O4222       O  0.60101665  0.56089507  0.39654758    -2.31580
O4223       O  0.51828570  0.53952381  0.34881339    -2.27780
O4224       O  0.60640176  0.60527874  0.36250573    -0.72380
H4225       H  0.59368363  0.56650148  0.30538628     0.79620
H4226       H  0.61501237  0.55574673  0.41249832     0.80710
H4227       H  0.54598236  0.64046730  0.36917514     0.82930
H4228       H  0.00209345  0.52577596  0.34713521     0.80540
H4229       H  0.66885077  0.56145976  0.40312470     0.43570
H4230       H  0.64926199  0.62820756  0.41961562     0.42540
H4231       H  0.56249718  0.65402396  0.42644687     0.42220
H4232       H  0.48965436  0.63066860  0.39437737     0.40160
H4233       H  0.96058794  0.58705328  0.31265093     0.43290
H4234       H  0.98859393  0.53443392  0.26643220     0.38070
H4235       H  0.56215612  0.00355126  0.27418319     0.44190
H4236       H  0.62956760  0.52316471  0.31347718     0.40600
H4237       H  0.96140198  0.61620190  0.37902694     0.45520
H4238       H  0.48882023  0.56666598  0.27672957     0.44250
H4239       H  0.65985465  0.52564289  0.33474426     0.44380
H4240       H  0.63950230  0.61485303  0.44414932     0.44740
C4241       C  0.58652357  0.56897922  0.23034900    -0.15270
C4242       C  0.57111634  0.59009244  0.23855229    -0.30450
H4243       H  0.58932210  0.54870205  0.24107208     0.13750
H4244       H  0.56804237  0.61037301  0.22787697     0.14330
C4245       C  0.56658305  0.56778814  0.47677418    -0.15270
C4246       C  0.57562764  0.59545183  0.99286464    -0.30450
H4247       H  0.56198160  0.54708816  0.48544749     0.13750
H4248       H  0.58036421  0.61612197  0.98420439     0.14330
C4249       C  0.94606146  0.65801659  0.32708290    -0.15270
C4250       C  0.96624039  0.65496466  0.31148661    -0.30450
H4251       H  0.95374394  0.65651343  0.34854243     0.13750
H4252       H  0.95948825  0.65679765  0.28999160     0.14330
C4253       C  0.66662078  0.61533173  0.30679097    -0.15270
C4254       C  0.68960729  0.59739735  0.30799522    -0.30450
H4255       H  0.66932619  0.63846456  0.30269276     0.13750
H4256       H  0.68664212  0.57389399  0.31042678     0.14330
C4257       C  0.79516599  0.66333354  0.41463703    -0.15270
C4258       C  0.81750881  0.67421874  0.43460462    -0.30450
H4259       H  0.77357638  0.65693823  0.41809834     0.13750
H4260       H  0.83881261  0.68142451  0.43096298     0.14330
C4261       C  0.81251781  0.64317090  0.18143909    -0.15270
C4262       C  0.78759424  0.63593237  0.16224844    -0.30450
H4263       H  0.83404294  0.64454352  0.17659439     0.13750
H4264       H  0.76602469  0.63483478  0.16700451     0.14330
C4265       C  0.91328934  0.62613435  0.05371716    -0.15270
C4266       C  0.89942816  0.60908442  0.03166975    -0.30450
H4267       H  0.93489189  0.62050651  0.06495399     0.13750
H4268       H  0.91034071  0.59031075  0.02594979     0.14330
C4269       C  0.68287919  0.59107702  0.04187626    -0.15270
C4270       C  0.70159577  0.56929966  0.04091425    -0.30450
H4271       H  0.68829079  0.61264112  0.03543108     0.13750
H4272       H  0.69618939  0.54724859  0.04655918     0.14330
C4273       C  0.56384475  0.94427210  0.29697766    -0.15270
C4274       C  0.57240207  0.95574054  0.32247517    -0.30450
H4275       H  0.58019718  0.93481385  0.28781298     0.13750
H4276       H  0.59538058  0.95415833  0.33238254     0.14330
C4277       C  0.99992799  0.51793350  0.18938001    -0.15270
C4278       C  0.99418501  0.54292013  0.17581636    -0.30450
H4279       H  0.02116300  0.50872877  0.19014464     0.13750
H4280       H  0.47210555  0.54854279  0.17113578     0.14330
C4281       C  0.86829758  0.80519631  0.27071823    -0.15270
C4282       C  0.87804318  0.77712852  0.26572450    -0.30450
H4283       H  0.84845729  0.80657383  0.27822404     0.13750
H4284       H  0.89725549  0.77546402  0.25734078     0.14330
C4285       C  0.85467175  0.52576732  0.27188492    -0.15270
C4286       C  0.86257155  0.55444556  0.26531089    -0.30450
H4287       H  0.83778788  0.02259427  0.28272048     0.13750
H4288       H  0.88037817  0.55757466  0.25512705     0.14330
C4289       C  0.93624997  0.92821099  0.38506892    -0.15270
C4290       C  0.91255823  0.92440012  0.36380788    -0.30450
H4291       H  0.95801926  0.93449447  0.38199861     0.13750
H4292       H  0.89078682  0.91830528  0.36696381     0.14330
C4293       C  0.90814274  0.91632776  0.11377342    -0.15270
C4294       C  0.93509616  0.92301074  0.13019590    -0.30450
H4295       H  0.89124545  0.90338927  0.12058877     0.13750
H4296       H  0.95204649  0.93579682  0.12333914     0.14330
C4297       C  0.54647097  0.95449230  0.05181437    -0.15270
C4298       C  0.54460404  0.95887802  0.07769052    -0.30850
H4299       H  0.56474580  0.96467658  0.04480289     0.13750
H4300       H  0.52709288  0.94751733  0.08490649     0.14330
C4301       C  0.96818864  0.51717511  0.41544650    -0.15270
C4302       C  0.97352866  0.52015171  0.44230584    -0.30450
H4303       H  0.95136659  0.50083530  0.40489176     0.13750
H4304       H  0.95685633  0.04165378  0.43458882     0.14330
C4305       C  0.86045113  0.80525881  0.04059263    -0.15270
C4306       C  0.86862485  0.77780148  0.03741746    -0.30450
H4307       H  0.84035417  0.80850918  0.04733715     0.13750
H4308       H  0.88817717  0.77465158  0.02977503     0.14330
C4309       C  0.80157274  0.94897929  0.48479318    -0.15270
C4310       C  0.79601541  0.92320235  0.46980211    -0.30450
H4311       H  0.78498130  0.96519878  0.48149483     0.13750
H4312       H  0.77523492  0.91965820  0.45498962     0.14330
C4313       C  0.67856454  0.69810090  0.47668337    -0.15270
C4314       C  0.68151612  0.69254668  0.50319689    -0.30450
H4315       H  0.68276197  0.68110406  0.46311823     0.13750
H4316       H  0.67666630  0.70929303  0.51670583     0.14330
C4317       C  0.75709895  0.77310461  0.38504748    -0.15270
C4318       C  0.74604591  0.76212218  0.35997914    -0.30450
H4319       H  0.78052245  0.77267545  0.39436398     0.13750
H4320       H  0.72237540  0.76265935  0.35167743     0.14330
C4321       C  0.72462548  0.90638500  0.51165773    -0.15270
C4322       C  0.71010339  0.89187164  0.52816984    -0.30450
H4323       H  0.74515272  0.91914177  0.52032141     0.13750
H4324       H  0.71936802  0.89346666  0.54957491     0.14330
C4325       C  0.53308607  0.85525108  0.48380047    -0.15270
C4326       C  0.55569471  0.87326148  0.47983970    -0.30450
H4327       H  0.53364074  0.83147878  0.48197496     0.13750
H4328       H  0.55556151  0.89692931  0.48312172     0.14330
C4329       C  0.58833650  0.71657187  0.38634977    -0.15270
C4330       C  0.60131251  0.70357330  0.36904975    -0.30450
H4331       H  0.57262315  0.70445432  0.39540353     0.13750
H4332       H  0.61606518  0.71516933  0.35869148     0.14330
C4333       C  0.62907731  0.94872474  0.39451233    -0.15270
C4334       C  0.63544004  0.97199640  0.41141417    -0.30450
H4335       H  0.61951872  0.95145210  0.37355097     0.13750
H4336       H  0.64398107  0.96987872  0.43273761     0.14330
C4337       C  0.63879507  0.79057670  0.29482335    -0.15270
C4338       C  0.65722264  0.77986606  0.31636381    -0.30450
H4339       H  0.61896610  0.80061914  0.29748672     0.13750
H4340       H  0.67621553  0.76823899  0.31383828     0.14330
C4341       C  0.70277296  0.81501439  0.08680600    -0.15270
C4342       C  0.72575726  0.80319641  0.10355349    -0.30450
H4343       H  0.70139296  0.81498632  0.06551653     0.13750
H4344       H  0.74318296  0.79366829  0.09592130     0.14330
C4345       C  0.67490159  0.70117311  0.26071442    -0.15270
C4346       C  0.66287492  0.69703738  0.23429319    -0.30450
H4347       H  0.66875516  0.71958165  0.27171924     0.13750
H4348       H  0.66958800  0.67836899  0.22400232     0.14330
C4349       C  0.69997289  0.69756396  0.10285038    -0.15270
C4350       C  0.69332625  0.67882362  0.12161216    -0.30450
H4351       H  0.68228655  0.70699930  0.08855640     0.13750
H4352       H  0.71186037  0.67118785  0.13633832     0.14330
C4353       C  0.77480491  0.89110328  0.22287241    -0.15270
C4354       C  0.79389835  0.89261833  0.20685398    -0.30450
H4355       H  0.78250865  0.89639141  0.24414376     0.13750
H4356       H  0.78637401  0.88596541  0.18582600     0.14330
C4357       C  0.53925678  0.85397190  0.23300338    -0.15270
C4358       C  0.53967477  0.82908912  0.21883721    -0.30450
H4359       H  0.55914027  0.86864162  0.23843662     0.13750
H4360       H  0.52013152  0.81413369  0.21265995     0.14330
C4361       C  0.55995221  0.70716623  0.10480584    -0.15270
C4362       C  0.56016714  0.71661434  0.13017416    -0.30450
H4363       H  0.56844669  0.72178687  0.09165130     0.13750
H4364       H  0.55342141  0.70138444  0.14383227     0.14330
C4365       C  0.64885520  0.96629385  0.16330471    -0.15270
C4366       C  0.66402883  0.94821240  0.15141974    -0.30450
H4367       H  0.64003611  0.95871068  0.17992205     0.13750
H4368       H  0.67327698  0.95525931  0.13492085     0.14330
O4369       O  0.64160294  0.90884397  0.66915545    -0.74130
O4370       O  0.68180380  0.90269300  0.65180657    -0.53040
C4371       C  0.66248711  0.91849900  0.65846878     0.79600
O4372       O  0.66958832  0.81206596  0.76713584    -0.58730
O4373       O  0.62709098  0.78404884  0.74845128    -0.51760
C4374       C  0.64646658  0.79584623  0.76870716     0.71610
O4375       O  0.73241247  0.86772455  0.72977115    -0.73290
O4376       O  0.73363184  0.87710723  0.68659734    -0.53850
C4377       C  0.74454494  0.87909583  0.71195728     0.77610
O4378       O  0.57929706  0.84782423  0.70204730    -0.58430
O4379       O  0.57583927  0.79866399  0.70906029    -0.51550
C4380       C  0.56697768  0.82472875  0.70981750     0.74210
Zr4381     Zr  0.61957044  0.86372745  0.68203456     2.54710
O4382       O  0.61518290  0.90222025  0.71436082    -0.79000
O4383       O  0.57710159  0.88196395  0.65099207    -0.92420
Zr4384     Zr  0.68977564  0.83434559  0.73155978     2.64680
O4385       O  0.68941694  0.87536415  0.76277025    -0.97370
O4386       O  0.73149129  0.81267569  0.76074647    -0.79430
O4387       O  0.67178165  0.86658576  0.69690999    -0.82790
O4388       O  0.63739767  0.83212976  0.71689041    -2.17500
O4389       O  0.58747808  0.76118148  0.62665451    -0.66180
O4390       O  0.58557761  0.74824219  0.66868093    -0.50750
C4391       C  0.57826709  0.74443171  0.64287169     0.72590
O4392       O  0.71256207  0.78009680  0.63877269    -0.59090
O4393       O  0.72938111  0.82780072  0.64475192    -0.51070
C4394       C  0.72487111  0.80332505  0.63112531     0.74390
O4395       O  0.67884488  0.73190459  0.70584553    -0.70480
O4396       O  0.63483093  0.73662023  0.71745650    -0.49160
C4397       C  0.65839427  0.72338080  0.71770219     0.75780
O4398       O  0.65698655  0.80655432  0.59955767    -0.65810
O4399       O  0.68153201  0.85074467  0.61110557    -0.53010
C4400       C  0.67685077  0.82643370  0.59727723     0.74160
Zr4401     Zr  0.62152865  0.80273643  0.62808753     2.77540
O4402       O  0.60021945  0.77912988  0.58425676    -0.96560
O4403       O  0.58505162  0.83614111  0.60632104    -0.77380
Zr4404     Zr  0.69279687  0.77159554  0.67851422     2.70070
O4405       O  0.70112327  0.72309155  0.66251087    -0.78630
O4406       O  0.74481123  0.77385800  0.70159184    -0.97710
Zr4407     Zr  0.69000422  0.85153038  0.65938380     2.21500
Zr4408     Zr  0.62105977  0.78314845  0.69969087     2.11130
O4409       O  0.64041038  0.76884278  0.66236742    -2.46400
O4410       O  0.67275963  0.80293674  0.64428919    -0.78420
O4411       O  0.60172316  0.81554112  0.66500269    -0.70620
O4412       O  0.70931476  0.82011708  0.69481961    -2.31580
O4413       O  0.63746295  0.85149261  0.64388921    -2.27780
O4414       O  0.67368447  0.78562969  0.71525544    -0.72380
H4415       H  0.62912477  0.83734335  0.73180283     0.79620
H4416       H  0.73060248  0.82242751  0.69930489     0.80710
H4417       H  0.63515735  0.74855523  0.65651399     0.82930
H4418       H  0.63210203  0.86540842  0.63001211     0.80540
H4419       H  0.74732154  0.81342652  0.75080746     0.43570
H4420       H  0.74508170  0.76549635  0.71915626     0.42540
H4421       H  0.68139971  0.71252359  0.65926440     0.42220
H4422       H  0.61426754  0.76430863  0.58177490     0.40160
H4423       H  0.56627106  0.82853055  0.61027267     0.43290
H4424       H  0.58555610  0.89275731  0.63779748     0.38070
H4425       H  0.63526379  0.90513825  0.72618002     0.44190
H4426       H  0.66911255  0.87433988  0.76569458     0.40600
H4427       H  0.60203224  0.79429178  0.57121300     0.45520
H4428       H  0.57014589  0.89752009  0.66142614     0.44250
H4429       H  0.70203983  0.86956626  0.77988323     0.44380
H4430       H  0.75392735  0.75961726  0.69161182     0.44740
O4431       O  0.57449334  0.83442249  0.95898622    -0.74130
O4432       O  0.60120506  0.87829923  0.96916574    -0.53040
C4433       C  0.57863045  0.86064298  0.96926206     0.79600
O4434       O  0.67555449  0.74784555  0.98429721    -0.58730
O4435       O  0.67372039  0.73192684  0.94139596    -0.51760
C4436       C  0.67531866  0.72749423  0.96662411     0.71610
O4437       O  0.68836179  0.84281308  0.51884173    -0.73290
O4438       O  0.66184703  0.87935950  0.00416883    -0.53850
C4439       C  0.68434635  0.87072218  0.51745056     0.77610
O4440       O  0.58546859  0.75666441  0.91105642    -0.58430
O4441       O  0.62280864  0.74753149  0.89079613    -0.51550
C4442       C  0.59705969  0.74220095  0.89497024     0.74210
Zr4443     Zr  0.59746158  0.80528134  0.93091947     2.54710
O4444       O  0.56185291  0.77634585  0.94916386    -0.79000
O4445       O  0.55631450  0.81776210  0.89502277    -0.92420
Zr4446     Zr  0.67256067  0.80022185  0.98540485     2.64680
O4447       O  0.63994161  0.78915571  0.01501298    -0.97370
O4448       O  0.71574237  0.78593979  0.01774582    -0.79430
O4449       O  0.62987030  0.82642997  0.97038640    -0.82790
O4450       O  0.63926383  0.77802823  0.94693195    -2.17500
O4451       O  0.64282005  0.81404833  0.84760765    -0.66180
O4452       O  0.66198985  0.77123062  0.86371933    -0.50750
C4453       C  0.65260222  0.78862170  0.84441262     0.72590
O4454       O  0.73113365  0.88503545  0.97092122    -0.59090
O4455       O  0.68895582  0.90732737  0.97154811    -0.51070
C4456       C  0.71517325  0.90071752  0.98279435     0.74390
O4457       O  0.74131048  0.81053018  0.91141042    -0.70480
O4458       O  0.71263442  0.76760392  0.90076239    -0.49160
C4459       C  0.73565383  0.78446312  0.90032464     0.75780
O4460       O  0.62615153  0.89814457  0.88741049    -0.65810
O4461       O  0.63382498  0.91325840  0.93134594    -0.53010
C4462       C  0.62676897  0.91722362  0.90628287     0.74160
Zr4463     Zr  0.63892244  0.84795437  0.88382457     2.77540
O4464       O  0.66186669  0.87599533  0.85358573    -0.96560
O4465       O  0.59075382  0.84732169  0.85253039    -0.77380
Zr4466     Zr  0.71641506  0.84429655  0.93604411     2.70070
O4467       O  0.73196301  0.88141536  0.90817917    -0.78630
O4468       O  0.76683346  0.83973599  0.96181731    -0.97710
Zr4469     Zr  0.64799784  0.87157942  0.95660351     2.21500
Zr4470     Zr  0.66622848  0.77578302  0.91264160     2.11130
O4471       O  0.68204853  0.82217682  0.89886282    -2.46400
O4472       O  0.67344605  0.87119470  0.92118604    -0.78420
O4473       O  0.62301923  0.80172901  0.89638185    -0.70620
O4474       O  0.68948699  0.84249166  0.96875305    -2.31580
O4475       O  0.61276502  0.85172119  0.91816735    -2.27780
O4476       O  0.70031207  0.79775307  0.95100274    -0.72380
H4477       H  0.63128148  0.75900439  0.95053566     0.79620
H4478       H  0.70543689  0.84803894  0.98352369     0.80710
H4479       H  0.69152432  0.82026396  0.88417462     0.82930
H4480       H  0.59606992  0.86382525  0.91329956     0.80540
H4481       H  0.73113577  0.80154709  0.51562859     0.43570
H4482       H  0.76857878  0.81835569  0.96423800     0.42540
H4483       H  0.72781616  0.87175827  0.89013287     0.42220
H4484       H  0.67844392  0.86436158  0.85103993     0.40160
H4485       H  0.58406146  0.82623306  0.84965046     0.43290
H4486       H  0.54263071  0.82738281  0.90420857     0.38070
H4487       H  0.57351932  0.76980824  0.96641591     0.44190
H4488       H  0.62691970  0.77217019  0.00602811     0.40600
H4489       H  0.64727344  0.87401425  0.83616667     0.45520
H4490       H  0.54592419  0.79861313  0.88808610     0.44250
H4491       H  0.65138448  0.78198244  0.52948026     0.44380
H4492       H  0.77955040  0.84484737  0.94943404     0.44740
O4493       O  0.49579994  0.94156788  0.53755638    -0.74130
O4494       O  0.51940515  0.94304070  0.50740734    -0.53040
C4495       C  0.52043539  0.94571171  0.53235282     0.79600
O4496       O  0.90230981  0.82883101  0.52503892    -0.58730
O4497       O  0.86470716  0.85524853  0.53320827    -0.51760
C4498       C  0.87771922  0.83119504  0.53238509     0.71610
O4499       O  0.48692401  0.85158653  0.99905492    -0.73290
O4500       O  0.50097007  0.89231496  0.97912787    -0.53850
C4501       C  0.50490614  0.86657425  0.98800390     0.77610
O4502       O  0.91626194  0.94245187  0.58052973    -0.58430
O4503       O  0.88229229  0.90484255  0.57005464    -0.51550
C4504       C  0.90170941  0.92072402  0.58721060     0.74210
Zr4505     Zr  0.95106890  0.93651865  0.55361556     2.54710
O4506       O  0.98012618  0.91100348  0.59079368    -0.79000
O4507       O  0.97131691  0.97906785  0.58291770    -0.92420
Zr4508     Zr  0.93901286  0.86093192  0.50967676     2.64680
O4509       O  0.97088895  0.84084355  0.54869410    -0.97370
O4510       O  0.93390511  0.81173421  0.98623752    -0.79430
O4511       O  0.96673299  0.90619524  0.52175114    -0.82790
O4512       O  0.92375814  0.89080136  0.54222350    -2.17500
O4513       O  0.84825821  0.97649460  0.49381068    -0.66180
O4514       O  0.84046378  0.94172124  0.52244918    -0.50750
C4515       C  0.83118827  0.95754324  0.50241511     0.72590
O4516       O  0.90867527  0.91225616  0.91576828    -0.59090
O4517       O  0.95722774  0.92682263  0.93201913    -0.51070
C4518       C  0.93397345  0.92162625  0.91272835     0.74390
O4519       O  0.83350257  0.90009946  0.95076979    -0.70480
O4520       O  0.82905757  0.89105524  0.99260232    -0.49160
C4521       C  0.82004813  0.90243651  0.97002870     0.75780
O4522       O  0.93635012  0.49971700  0.96309761    -0.65810
O4523       O  0.97826448  0.97643432  0.96721250    -0.53010
C4524       C  0.96226661  0.49709858  0.95834352     0.74160
Zr4525     Zr  0.90570668  0.97590791  0.99285955     2.77540
O4526       O  0.88380554  0.01736053  0.96826269    -0.96560
O4527       O  0.92178916  0.51394639  0.52833879    -0.77380
Zr4528     Zr  0.88718547  0.89626237  0.95126800     2.70070
O4529       O  0.85351763  0.89531427  0.90724511    -0.78630
O4530       O  0.88511619  0.84389153  0.93971656    -0.97710
Zr4531     Zr  0.96626862  0.92880500  0.98128743     2.21500
Zr4532     Zr  0.87543471  0.90495783  0.52172123     2.11130
O4533       O  0.87811526  0.93090782  0.98153601    -2.46400
O4534       O  0.91746817  0.94187357  0.96102295    -0.78420
O4535       O  0.90309653  0.95104790  0.53385165    -0.70620
O4536       O  0.93646475  0.88341372  0.96988329    -2.31580
O4537       O  0.95084271  0.96478159  0.51459740    -2.27780
O4538       O  0.88972318  0.87086899  0.99089834    -0.72380
H4539       H  0.92411828  0.87962889  0.55795684     0.79620
H4540       H  0.94349491  0.87144211  0.95715475     0.80710
H4541       H  0.86105365  0.93825567  0.97032344     0.82930
H4542       H  0.96363212  0.98257567  0.51854096     0.80540
H4543       H  0.93740908  0.81655129  0.96855813     0.43570
H4544       H  0.86400256  0.83734017  0.93727356     0.42540
H4545       H  0.84874660  0.91607353  0.90424443     0.42220
H4546       H  0.86697707  0.00860502  0.95428086     0.40160
H4547       H  0.90549704  0.51354994  0.53774643     0.43290
H4548       H  0.98882703  0.98584341  0.57652240     0.38070
H4549       H  0.49308271  0.89684031  0.58273848     0.44190
H4550       H  0.95789779  0.83687086  0.56108658     0.40600
H4551       H  0.87561023  0.52858679  0.98063629     0.45520
H4552       H  0.97957063  0.97096669  0.60055145     0.44250
H4553       H  0.97500777  0.82109810  0.54244922     0.44380
H4554       H  0.88861315  0.84297139  0.92147879     0.44740
O4555       O  0.50956552  0.96297365  0.78735529    -0.74130
O4556       O  0.52299536  0.93331127  0.75809281    -0.53040
C4557       C  0.52814492  0.94658670  0.78133981     0.79600
O4558       O  0.90729181  0.83151616  0.76468062    -0.58730
O4559       O  0.87087169  0.86095827  0.77109693    -0.51760
C4560       C  0.88183033  0.83471909  0.76872955     0.71610
O4561       O  0.49510218  0.85651540  0.74715212    -0.73290
O4562       O  0.50747095  0.89140896  0.71997724    -0.53850
C4563       C  0.51194573  0.86800264  0.73306145     0.77610
O4564       O  0.93943536  0.93318698  0.83245007    -0.58430
O4565       O  0.89011016  0.92166688  0.81686619    -0.51550
C4566       C  0.91357564  0.92676296  0.83600386     0.74210
Zr4567     Zr  0.96257941  0.94165842  0.79588508     2.54710
O4568       O  0.99336547  0.94483879  0.84124902    -0.79000
O4569       O  0.96037096  0.99372077  0.80465609    -0.92420
Zr4570     Zr  0.94524690  0.86489405  0.75935708     2.64680
O4571       O  0.96860178  0.84843492  0.80348493    -0.97370
O4572       O  0.94214169  0.81660539  0.73704978    -0.79430
O4573       O  0.97814677  0.90604880  0.76862915    -0.82790
O4574       O  0.93021054  0.89910756  0.78860763    -2.17500
O4575       O  0.88632949  0.00429344  0.74785935    -0.66180
O4576       O  0.86536206  0.97139139  0.77201151    -0.50750
C4577       C  0.86943993  0.99826498  0.76331763     0.72590
O4578       O  0.92335173  0.89388900  0.66625954    -0.59090
O4579       O  0.96400203  0.92542947  0.67719628    -0.51070
C4580       C  0.94196870  0.91228144  0.66000276     0.74390
O4581       O  0.84240113  0.89689694  0.69983072    -0.70480
O4582       O  0.83460331  0.90837918  0.74105972    -0.49160
C4583       C  0.82557370  0.90039226  0.71624438     0.75780
O4584       O  0.95547090  0.50611905  0.70669331    -0.65810
O4585       O  0.99605656  0.97185349  0.71142861    -0.53010
C4586       C  0.97989877  0.49862846  0.70122658     0.74160
Zr4587     Zr  0.92222932  0.98005411  0.73137782     2.77540
O4588       O  0.89005760  0.99042665  0.68853997    -0.96560
O4589       O  0.93228002  0.53253549  0.74871209    -0.77380
Zr4590     Zr  0.89494307  0.90212484  0.69858574     2.70070
O4591       O  0.86770288  0.92532085  0.65906592    -0.78630
O4592       O  0.87843234  0.85261097  0.68025600    -0.97710
Zr4593     Zr  0.97826968  0.92629437  0.72668759     2.21500
Zr4594     Zr  0.88374711  0.91802254  0.76796424     2.11130
O4595       O  0.88498746  0.94048129  0.72628489    -2.46400
O4596       O  0.93134903  0.94209731  0.70401981    -0.78420
O4597       O  0.91831925  0.95969171  0.77318023    -0.70620
O4598       O  0.94286656  0.88519533  0.71771088    -2.31580
O4599       O  0.96762768  0.96374419  0.75568279    -2.27780
O4600       O  0.89751798  0.88148456  0.73992709    -0.72380
H4601       H  0.92939629  0.88877127  0.80454634     0.79620
H4602       H  0.94826515  0.87051546  0.70611768     0.80710
H4603       H  0.86607769  0.94812534  0.71854034     0.82930
H4604       H  0.98303978  0.97930268  0.75939186     0.80540
H4605       H  0.92968121  0.81898957  0.71892152     0.43570
H4606       H  0.87003898  0.84307831  0.69413382     0.42540
H4607       H  0.88139722  0.94147431  0.65589071     0.42220
H4608       H  0.87079754  0.99428534  0.69258648     0.40160
H4609       H  0.93218220  0.53189209  0.76789282     0.43290
H4610       H  0.98120766  0.99951533  0.81289311     0.38070
H4611       H  0.50344290  0.90494218  0.82306046     0.44190
H4612       H  0.95237770  0.83829460  0.80990155     0.40600
H4613       H  0.89101532  0.51734760  0.68960214     0.45520
H4614       H  0.95032241  0.99495774  0.81957971     0.44250
H4615       H  0.98094107  0.83243242  0.79995356     0.44380
H4616       H  0.86109247  0.85536634  0.66542605     0.44740
O4617       O  0.74248341  0.71765482  0.57958528    -0.74130
O4618       O  0.74294522  0.67563530  0.60107468    -0.53040
C4619       C  0.73077847  0.69897546  0.59387002     0.79600
O4620       O  0.78648381  0.66895138  0.96474057    -0.58730
O4621       O  0.83425710  0.68528551  0.98091398    -0.51760
C4622       C  0.81232000  0.67656685  0.96179352     0.71610
O4623       O  0.71059798  0.65267772  0.00007182    -0.73290
O4624       O  0.70844303  0.66657914  0.54128006    -0.53850
C4625       C  0.69923423  0.66799223  0.51550617     0.77610
O4626       O  0.83118070  0.75284193  0.55199666    -0.58430
O4627       O  0.85999462  0.72629403  0.53067241    -0.51550
C4628       C  0.85270234  0.75047510  0.54012341     0.74210
Zr4629     Zr  0.79268602  0.72083001  0.56520814     2.54710
O4630       O  0.77106939  0.76651428  0.54991483    -0.79000
O4631       O  0.81086957  0.74655616  0.60846598    -0.92420
Zr4632     Zr  0.75955645  0.67198944  0.49815690     2.64680
O4633       O  0.74224311  0.71918923  0.98154410    -0.97370
O4634       O  0.72780311  0.65622905  0.95463602    -0.79430
O4635       O  0.75427320  0.68877505  0.54098587    -0.82790
O4636       O  0.79826795  0.70486695  0.52170737    -2.17500
O4637       O  0.88833330  0.64282488  0.58595810    -0.66180
O4638       O  0.89066664  0.67034629  0.55071744    -0.50750
C4639       C  0.89840620  0.64847370  0.56515953     0.72590
O4640       O  0.75012248  0.57451965  0.53219996    -0.59090
O4641       O  0.73885434  0.59709547  0.56792372    -0.51070
C4642       C  0.73228916  0.57967828  0.54746488     0.74390
O4643       O  0.84781301  0.59296625  0.52062569    -0.70480
O4644       O  0.86304710  0.63719087  0.50773255    -0.49160
C4645       C  0.86841861  0.61208158  0.51771549     0.75780
O4646       O  0.81547754  0.63974244  0.63004762    -0.65810
O4647       O  0.76520020  0.63689211  0.61567362    -0.53010
C4648       C  0.78940340  0.63682761  0.63404506     0.74160
Zr4649     Zr  0.83953032  0.65280385  0.59550007     2.77540
O4650       O  0.86367009  0.61774187  0.62702533    -0.96560
O4651       O  0.86784472  0.69236869  0.62472799    -0.77380
Zr4652     Zr  0.79793334  0.60052438  0.52926846     2.70070
O4653       O  0.81092979  0.55395594  0.54956348    -0.78630
O4654       O  0.78464043  0.57813459  0.48428662    -0.97710
Zr4655     Zr  0.75590530  0.64691060  0.56794365     2.21500
Zr4656     Zr  0.84035221  0.67581257  0.52737227     2.11130
O4657       O  0.83568492  0.63380728  0.55298520    -2.46400
O4658       O  0.79868238  0.61913506  0.57350555    -0.78420
O4659       O  0.83807685  0.69559142  0.57029461    -0.70620
O4660       O  0.75691243  0.62979364  0.52379447    -2.31580
O4661       O  0.79634740  0.67921239  0.59129020    -2.27780
O4662       O  0.80087338  0.64294737  0.50339844    -0.72380
H4663       H  0.80087583  0.72143368  0.51103200     0.79620
H4664       H  0.73975803  0.61788652  0.51460692     0.80710
H4665       H  0.85081053  0.62034797  0.55737017     0.82930
H4666       H  0.79500224  0.68598024  0.60885734     0.80540
H4667       H  0.73013391  0.63480756  0.95312078     0.43570
H4668       H  0.79856647  0.58876043  0.97412540     0.42540
H4669       H  0.82623335  0.55956443  0.56603267     0.42220
H4670       H  0.86784059  0.60129726  0.61574305     0.40160
H4671       H  0.88691763  0.69434454  0.61935384     0.43290
H4672       H  0.79342987  0.74666646  0.61639392     0.38070
H4673       H  0.77304126  0.76741199  0.53121627     0.44190
H4674       H  0.76017646  0.73157701  0.98104007     0.40600
H4675       H  0.88332728  0.62736520  0.63544755     0.45520
H4676       H  0.81435061  0.76729691  0.60412662     0.44250
H4677       H  0.73289210  0.71484210  0.96242860     0.44380
H4678       H  0.79091984  0.55774152  0.48653501     0.44740
O4679       O  0.78253823  0.74947540  0.83765765    -0.74130
O4680       O  0.74873665  0.71356187  0.84289951    -0.53040
C4681       C  0.76008567  0.73987751  0.84648972     0.79600
O4682       O  0.78697696  0.65533488  0.71410140    -0.58730
O4683       O  0.83731332  0.65955668  0.72568647    -0.51760
C4684       C  0.81239656  0.65343458  0.70888188     0.71610
O4685       O  0.71918406  0.68552833  0.75339076    -0.73290
O4686       O  0.71405382  0.68662513  0.79628951    -0.53850
C4687       C  0.70420173  0.68946908  0.77094611     0.77610
O4688       O  0.84513234  0.75475179  0.78917918    -0.58430
O4689       O  0.86723076  0.72092347  0.76762874    -0.51550
C4690       C  0.86230115  0.74853697  0.77443913     0.74210
Zr4691     Zr  0.81344349  0.72810301  0.80925953     2.54710
O4692       O  0.78936350  0.77000020  0.78741968    -0.79000
O4693       O  0.84987683  0.75573852  0.84424420    -0.92420
Zr4694     Zr  0.76771524  0.67528416  0.74996654     2.64680
O4695       O  0.76320647  0.71585877  0.72037639    -0.97370
O4696       O  0.72905350  0.64930496  0.71599335    -0.79430
O4697       O  0.76791381  0.70400221  0.78940887    -0.82790
O4698       O  0.81254744  0.70192853  0.76746189    -2.17500
O4699       O  0.89765611  0.65901328  0.83728510    -0.66180
O4700       O  0.90073154  0.66253387  0.79388772    -0.50750
C4701       C  0.91265916  0.66015413  0.81875411     0.72590
O4702       O  0.73814459  0.59498708  0.79861549    -0.59090
O4703       O  0.72417252  0.63340926  0.82112129    -0.51070
C4704       C  0.71890362  0.60853576  0.80850206     0.74390
O4705       O  0.82456501  0.57700378  0.77926819    -0.70480
O4706       O  0.85825929  0.60939147  0.76690412    -0.49160
C4707       C  0.84775703  0.58233070  0.77060812     0.75780
O4708       O  0.82341764  0.66041269  0.88352053    -0.65810
O4709       O  0.77299189  0.66165128  0.86931144    -0.53010
C4710       C  0.79716896  0.66093850  0.88741815     0.74160
Zr4711     Zr  0.84636272  0.65918449  0.84612472     2.77540
O4712       O  0.86321330  0.61393330  0.86719369    -0.96560
O4713       O  0.87932665  0.68829953  0.88244181    -0.77380
Zr4714     Zr  0.78958848  0.60683187  0.79238872     2.70070
O4715       O  0.79664927  0.56773719  0.82414275    -0.78630
O4716       O  0.76455630  0.57623987  0.75324892    -0.97710
Zr4717     Zr  0.76168390  0.67067556  0.82210915     2.21500
Zr4718     Zr  0.84872608  0.66547790  0.77400888     2.11130
O4719       O  0.83854169  0.63157355  0.80640245    -2.46400
O4720       O  0.79752937  0.63451418  0.83279219    -0.78420
O4721       O  0.85195897  0.69403138  0.81462153    -0.70620
O4722       O  0.75619233  0.64346536  0.78123145    -2.31580
O4723       O  0.80914257  0.69425825  0.84087096    -2.27780
O4724       O  0.80158601  0.63870331  0.75964918    -0.72380
H4725       H  0.81480670  0.71527417  0.75375867     0.79620
H4726       H  0.73622814  0.63621096  0.77308075     0.80710
H4727       H  0.85345692  0.61748103  0.81090879     0.82930
H4728       H  0.80989728  0.70479126  0.85755142     0.80540
H4729       H  0.73303096  0.62830804  0.71856737     0.43570
H4730       H  0.77556105  0.58080602  0.73940555     0.42540
H4731       H  0.81746790  0.57106745  0.83429425     0.42220
H4732       H  0.87943524  0.60829282  0.85895414     0.40160
H4733       H  0.88511629  0.70620317  0.87393527     0.43290
H4734       H  0.84587136  0.74885747  0.86119916     0.38070
H4735       H  0.78033527  0.76260414  0.76890957     0.44190
H4736       H  0.77857451  0.71339750  0.71018016     0.40600
H4737       H  0.87324223  0.62025671  0.88577732     0.45520
H4738       H  0.84351289  0.77616218  0.84316284     0.44250
H4739       H  0.74433054  0.71068423  0.70721289     0.44380
H4740       H  0.76912380  0.55581815  0.75805443     0.44740
O4741       O  0.57466492  0.00374049  0.58341178    -0.74130
O4742       O  0.55734983  0.99430695  0.61915331    -0.53040
C4743       C  0.56020188  0.98664332  0.59543477     0.79600
O4744       O  0.66365441  0.56787022  0.57414272    -0.58730
O4745       O  0.64377328  0.61072675  0.55871513    -0.51760
C4746       C  0.66122744  0.58939671  0.55848822     0.71610
O4747       O  0.64784013  0.50706455  0.63553982    -0.73290
O4748       O  0.61503325  0.00443495  0.66190059    -0.53850
C4749       C  0.63685917  0.99519438  0.65347661     0.77610
O4750       O  0.56287493  0.57036728  0.52899692    -0.58430
O4751       O  0.58414758  0.61695149  0.53481551    -0.51550
C4752       C  0.57243185  0.59398226  0.52024637     0.74210
Zr4753     Zr  0.55692519  0.55111344  0.57023418     2.54710
O4754       O  0.53728718  0.51814857  0.53133458    -0.79000
O4755       O  0.50296543  0.54907394  0.56152436    -0.92420
Zr4756     Zr  0.64241182  0.55171731  0.60974101     2.64680
O4757       O  0.65551927  0.50917578  0.58621332    -0.97370
O4758       O  0.69311141  0.56406407  0.63444993    -0.79430
O4759       O  0.59400319  0.53239882  0.60415387    -0.82790
O4760       O  0.60560923  0.57055865  0.57444400    -2.17500
O4761       O  0.54362679  0.65988576  0.60935350    -0.66180
O4762       O  0.57853055  0.66783455  0.58478827    -0.50750
C4763       C  0.55956521  0.67663790  0.59784259     0.72590
O4764       O  0.61146370  0.60225347  0.69770474    -0.59090
O4765       O  0.58512808  0.55759821  0.69114401    -0.51070
C4766       C  0.59554113  0.58146900  0.70515700     0.74390
O4767       O  0.66248224  0.64980045  0.63913320    -0.70480
O4768       O  0.64454945  0.66047310  0.59550116    -0.49160
C4769       C  0.66430613  0.66370175  0.61760848     0.75780
O4770       O  0.01496433  0.58104293  0.65110050    -0.65810
O4771       O  0.53626824  0.53721464  0.66043078    -0.53010
C4772       C  0.51541711  0.55445566  0.66063585     0.74160
Zr4773     Zr  0.54204259  0.60886003  0.62118098     2.77540
O4774       O  0.52607686  0.63816908  0.65492327    -0.96560
O4775       O  0.99526023  0.60821615  0.58941568    -0.77380
Zr4776     Zr  0.62975711  0.61383218  0.65782813     2.70070
O4777       O  0.62916559  0.66122911  0.68057947    -0.78630
O4778       O  0.67551406  0.60277117  0.68874096    -0.97710
Zr4779     Zr  0.58046070  0.54032526  0.64468880     2.21500
Zr4780     Zr  0.60481514  0.62209969  0.58285326     2.11130
O4781       O  0.59168166  0.63057258  0.62478391    -2.46400
O4782       O  0.58117016  0.59162417  0.65304938    -0.78420
O4783       O  0.55502818  0.60212991  0.57899935    -0.70620
O4784       O  0.63003438  0.56199895  0.65085994    -2.31580
O4785       O  0.54206821  0.55800525  0.61062552    -2.27780
O4786       O  0.64242870  0.60316706  0.61712237    -0.72380
H4787       H  0.61039220  0.56556452  0.55772658     0.79620
H4788       H  0.64363238  0.55407208  0.66573735     0.80710
H4789       H  0.59379338  0.65100371  0.63055093     0.82930
H4790       H  0.52326609  0.54760915  0.60988916     0.80540
H4791       H  0.69503999  0.55372201  0.65137523     0.43570
H4792       H  0.69121540  0.61007268  0.68004686     0.42540
H4793       H  0.60837403  0.66271300  0.68179642     0.42220
H4794       H  0.54330092  0.65188062  0.66284391     0.40160
H4795       H  0.98200158  0.59450429  0.59650509     0.43290
H4796       H  0.99536101  0.53097424  0.55113046     0.38070
H4797       H  0.55482329  0.01252265  0.52516218     0.44190
H4798       H  0.64502038  0.51089949  0.56730422     0.40600
H4799       H  0.00886417  0.65009088  0.64307271     0.45520
H4800       H  0.49698208  0.56325516  0.54731416     0.44250
H4801       H  0.67673274  0.51293850  0.58647916     0.44380
H4802       H  0.67693838  0.61660785  0.70420603     0.44740
O4803       O  0.52724856  0.98894074  0.82881336    -0.74130
O4804       O  0.55820708  0.98122965  0.86717596    -0.53040
C4805       C  0.54708750  0.97387318  0.84236027     0.79600
O4806       O  0.64378240  0.58042369  0.82757251    -0.58730
O4807       O  0.61522594  0.61812699  0.81108749    -0.51760
C4808       C  0.63905997  0.60337362  0.81409130     0.71610
O4809       O  0.63222274  0.01167406  0.88344709    -0.73290
O4810       O  0.59855672  0.00180188  0.90859711    -0.53850
C4811       C  0.62194468  0.99698569  0.90052586     0.77610
O4812       O  0.54735148  0.55171229  0.77134108    -0.58430
O4813       O  0.56138123  0.60060550  0.77636080    -0.51550
C4814       C  0.55600918  0.57601696  0.76266248     0.74210
Zr4815     Zr  0.54025667  0.53301707  0.81360017     2.54710
O4816       O  0.55840098  0.49983513  0.78424057    -0.79000
O4817       O  0.49095968  0.53116675  0.78422278    -0.92420
Zr4818     Zr  0.62208485  0.55460582  0.85771889     2.64680
O4819       O  0.64345169  0.51912128  0.83255877    -0.97370
O4820       O  0.66986428  0.57366479  0.88481305    -0.79430
O4821       O  0.57957499  0.52355688  0.85053662    -0.82790
O4822       O  0.58342511  0.56365701  0.82015515    -2.17500
O4823       O  0.49582304  0.62907922  0.84657866    -0.66180
O4824       O  0.51503690  0.63301368  0.81016570    -0.50750
C4825       C  0.49421081  0.63743755  0.82302428     0.72590
O4826       O  0.58071193  0.59256554  0.94080824    -0.59090
O4827       O  0.56971798  0.54291721  0.93777902    -0.51070
C4828       C  0.57460308  0.56812868  0.95064236     0.74390
O4829       O  0.59291459  0.65810070  0.88167659    -0.70480
O4830       O  0.58052857  0.66060365  0.83615421    -0.49160
C4831       C  0.58828726  0.67193716  0.85972348     0.75780
O4832       O  0.98417562  0.55525688  0.88967474    -0.65810
O4833       O  0.51887053  0.51180913  0.90329162    -0.53010
C4834       C  0.98909732  0.53034205  0.90078038     0.74160
Zr4835     Zr  0.50872399  0.58251662  0.86345308     2.77540
O4836       O  0.48844262  0.60967536  0.89580596    -0.96560
O4837       O  0.95875649  0.57680008  0.82881319    -0.77380
Zr4838     Zr  0.59101995  0.60962543  0.90008473     2.70070
O4839       O  0.58969010  0.64916325  0.93247720    -0.78630
O4840       O  0.64382019  0.61361065  0.92086780    -0.97710
Zr4841     Zr  0.56324900  0.52804534  0.89060921     2.21500
Zr4842     Zr  0.56606343  0.61117375  0.82383548     2.11130
O4843       O  0.55008028  0.61669729  0.86485723    -2.46400
O4844       O  0.54964382  0.57620959  0.89815414    -0.78420
O4845       O  0.52322219  0.57926375  0.82142623    -0.70620
O4846       O  0.60598493  0.56136551  0.89709167    -2.31580
O4847       O  0.52279183  0.53547911  0.85387243    -2.27780
O4848       O  0.60727461  0.60352295  0.86066338    -0.72380
H4849       H  0.59213309  0.56144216  0.80503877     0.79620
H4850       H  0.62104363  0.55763163  0.91281009     0.80710
H4851       H  0.54440482  0.63639229  0.86749802     0.82930
H4852       H  0.00168449  0.52597486  0.84692691     0.80540
H4853       H  0.67354766  0.56141437  0.90070227     0.43570
H4854       H  0.65040106  0.63388212  0.91746456     0.42540
H4855       H  0.56866784  0.65398324  0.92871849     0.42220
H4856       H  0.50047319  0.62857379  0.89941711     0.40160
H4857       H  0.96039766  0.58729511  0.81259501     0.43290
H4858       H  0.98833864  0.53502985  0.76611542     0.38070
H4859       H  0.57831391  0.00325077  0.79185369     0.44190
H4860       H  0.63470139  0.52261589  0.81354389     0.40600
H4861       H  0.96128348  0.61610509  0.87939356     0.45520
H4862       H  0.48243306  0.54965755  0.78839413     0.44250
H4863       H  0.66452402  0.52602100  0.83541483     0.44380
H4864       H  0.64491357  0.61387461  0.94030362     0.44740
C4865       C  0.58736981  0.58649514  0.73100364    -0.15270
C4866       C  0.56233557  0.57408073  0.73591828    -0.30450
H4867       H  0.60164191  0.60143242  0.74594309     0.13750
H4868       H  0.54843194  0.55875569  0.72117774     0.14330
C4869       C  0.57243140  0.56960920  0.97850959    -0.15270
C4870       C  0.57121295  0.59346907  0.49159696    -0.30450
H4871       H  0.56846778  0.54891245  0.98746092     0.13750
H4872       H  0.57637891  0.61409032  0.48306838     0.14330
C4873       C  0.94560404  0.65770906  0.82741088    -0.15270
C4874       C  0.96579969  0.65497446  0.81177473    -0.30450
H4875       H  0.95329151  0.65602408  0.84884747     0.13750
H4876       H  0.95901107  0.65695409  0.79029829     0.14330
C4877       C  0.66505035  0.61363072  0.80391233    -0.15270
C4878       C  0.68823871  0.59594504  0.80498544    -0.30450
H4879       H  0.66771698  0.63694807  0.80049339     0.13750
H4880       H  0.68528278  0.57231756  0.80673333     0.14330
C4881       C  0.79451099  0.66219185  0.91486762    -0.15270
C4882       C  0.81663651  0.67385328  0.93470680    -0.30450
H4883       H  0.77305080  0.65544901  0.91842612     0.13750
H4884       H  0.83779140  0.68140107  0.93095318     0.14330
C4885       C  0.81291865  0.64420719  0.68156084    -0.15270
C4886       C  0.78804065  0.63699947  0.66231323    -0.30450
H4887       H  0.83446752  0.64574441  0.67676892     0.13750
H4888       H  0.76645930  0.63565700  0.66704231     0.14330
C4889       C  0.91356636  0.62503051  0.55388390    -0.15270
C4890       C  0.89949365  0.60787049  0.53197700    -0.30450
H4891       H  0.93510315  0.61925458  0.56514101     0.13750
H4892       H  0.91018475  0.58886795  0.52639835     0.14330
C4893       C  0.68132235  0.58983371  0.54008256    -0.15270
C4894       C  0.70114751  0.56880744  0.54058821    -0.30450
H4895       H  0.68598737  0.61122093  0.53270659     0.13750
H4896       H  0.69658954  0.54697377  0.54720528     0.14330
C4897       C  0.55491088  0.94123424  0.80246674    -0.15270
C4898       C  0.56113321  0.95067165  0.82879939    -0.30450
H4899       H  0.56969249  0.92588768  0.79681124     0.13750
H4900       H  0.58063537  0.94191833  0.84116397     0.14330
C4901       C  0.99632421  0.51622752  0.68498426    -0.15270
C4902       C  0.99459505  0.54435806  0.67697247    -0.30450
H4903       H  0.01284391  0.50317899  0.67916646     0.13750
H4904       H  0.47061528  0.55147262  0.67097086     0.14330
C4905       C  0.86574201  0.80508177  0.77105653    -0.15270
C4906       C  0.87597937  0.77720116  0.76622392    -0.30450
H4907       H  0.84575409  0.80623487  0.77836855     0.13750
H4908       H  0.89530859  0.77581381  0.75796537     0.14330
C4909       C  0.85463401  0.52574781  0.77176191    -0.15270
C4910       C  0.86252787  0.55436640  0.76506488    -0.30450
H4911       H  0.83754720  0.02264725  0.78149142     0.13750
H4912       H  0.88014022  0.55743395  0.75464656     0.14330
C4913       C  0.93583612  0.92671291  0.88488305    -0.15270
C4914       C  0.91154089  0.92386812  0.86408109    -0.30450
H4915       H  0.95752060  0.93256222  0.88141647     0.13750
H4916       H  0.88984434  0.91821538  0.86760691     0.14330
C4917       C  0.90897731  0.91260645  0.61520961    -0.15270
C4918       C  0.93573486  0.92014737  0.63178654    -0.30450
H4919       H  0.89270387  0.89851590  0.62177995     0.13750
H4920       H  0.95207886  0.93399883  0.62510484     0.14330
C4921       C  0.54666405  0.95600489  0.55352505    -0.15270
C4922       C  0.54454336  0.96049489  0.57934616    -0.30850
H4923       H  0.56521451  0.96593635  0.54673948     0.13750
H4924       H  0.52680862  0.94925743  0.58629795     0.14330
C4925       C  0.96793428  0.51811298  0.91588587    -0.15270
C4926       C  0.97495150  0.51917529  0.94283403    -0.30450
H4927       H  0.94904056  0.50418533  0.90506346     0.13750
H4928       H  0.99428646  0.03237268  0.95464859     0.14330
C4929       C  0.86235805  0.80458567  0.53997350    -0.15270
C4930       C  0.87039468  0.77725034  0.53608121    -0.30450
H4931       H  0.84262411  0.80755541  0.54738198     0.13750
H4932       H  0.88956813  0.77426221  0.52784070     0.14330
C4933       C  0.80416428  0.95110919  0.98280555    -0.15270
C4934       C  0.79781215  0.92493469  0.96845982    -0.30450
H4935       H  0.78817849  0.96789664  0.97899986     0.13750
H4936       H  0.77696069  0.92155493  0.95370688     0.14330
C4937       C  0.67826774  0.69725224  0.97685618    -0.15270
C4938       C  0.68085380  0.69143416  0.00326444    -0.30450
H4939       H  0.68248242  0.68038605  0.96319056     0.13750
H4940       H  0.67591279  0.70805570  0.01683864     0.14330
C4941       C  0.75597318  0.77336973  0.88450067    -0.15270
C4942       C  0.74422604  0.75948886  0.86071446    -0.30450
H4943       H  0.77976495  0.77568468  0.89240034     0.13750
H4944       H  0.72024958  0.75758763  0.85377498     0.14330
C4945       C  0.72463528  0.90533296  0.01232795    -0.15270
C4946       C  0.71064794  0.89051921  0.02906366    -0.30450
H4947       H  0.74512804  0.91823875  0.02077802     0.13750
H4948       H  0.72029693  0.89205754  0.05040664     0.14330
C4949       C  0.53205163  0.85372563  0.98428131    -0.15270
C4950       C  0.55499814  0.87149853  0.98078127    -0.30450
H4951       H  0.53233513  0.82994116  0.98228460     0.13750
H4952       H  0.55512159  0.89515794  0.98429135     0.14330
C4953       C  0.58106232  0.71617340  0.88160807    -0.15270
C4954       C  0.59105975  0.70325522  0.86221731    -0.30450
H4955       H  0.56555438  0.70450697  0.89117475     0.13750
H4956       H  0.60524626  0.71493433  0.85134377     0.14330
C4957       C  0.61780808  0.94569600  0.89862017    -0.15270
C4958       C  0.63478680  0.96974487  0.90827008    -0.30450
H4959       H  0.59625986  0.94689060  0.88533063     0.13750
H4960       H  0.65712999  0.96901095  0.92052203     0.14330
C4961       C  0.63944660  0.79446982  0.79539048    -0.15270
C4962       C  0.65501875  0.78058862  0.81661978    -0.30450
H4963       H  0.62211415  0.80839407  0.79825931     0.13750
H4964       H  0.67161024  0.76567590  0.81387806     0.14330
C4965       C  0.70121123  0.81651153  0.58592131    -0.15270
C4966       C  0.72445343  0.80476218  0.60238811    -0.30450
H4967       H  0.69942865  0.81645622  0.56457112     0.13750
H4968       H  0.74169050  0.79526428  0.59445991     0.14330
C4969       C  0.67473074  0.70048628  0.76014415    -0.15270
C4970       C  0.66356421  0.69712357  0.73350190    -0.30450
H4971       H  0.66825828  0.71855578  0.77132383     0.13750
H4972       H  0.67058869  0.67878826  0.72302456     0.14330
C4973       C  0.69989662  0.69904499  0.59877387    -0.15270
C4974       C  0.69302692  0.68113917  0.61795145    -0.30450
H4975       H  0.68237863  0.70715410  0.58337741     0.13750
H4976       H  0.71140114  0.67479758  0.63359619     0.14330
C4977       C  0.77438209  0.89325953  0.72146560    -0.15270
C4978       C  0.79365512  0.89389563  0.70562309    -0.30450
H4979       H  0.78192234  0.89907965  0.74265542     0.13750
H4980       H  0.78631202  0.88668882  0.68471311     0.14330
C4981       C  0.53965068  0.85526873  0.73263699    -0.15270
C4982       C  0.54087993  0.82933207  0.72037759    -0.30450
H4983       H  0.55895077  0.87074984  0.73684850     0.13750
H4984       H  0.52192102  0.81351000  0.71555659     0.14330
C4985       C  0.56067786  0.70831168  0.60493801    -0.15270
C4986       C  0.56109093  0.71720426  0.63055112    -0.30450
H4987       H  0.56916268  0.72318134  0.59197139     0.13750
H4988       H  0.55445908  0.70167091  0.64402022     0.14330
C4989       C  0.64799399  0.96787504  0.66476112    -0.15270
C4990       C  0.66295402  0.94981795  0.65254125    -0.30450
H4991       H  0.63931029  0.96014593  0.68140151     0.13750
H4992       H  0.67217508  0.95708415  0.63609443     0.14330
loop_ 
_geom_bond_atom_site_label_1 
_geom_bond_atom_site_label_2 
_geom_bond_distance 
_geom_bond_site_symmetry_2 
_ccdc_geom_bond_type 
O1          Zr13   2.425       .  S
O1            C3   1.288       .  A
O2          Zr39   2.401       .  S
O2            C3   1.281       .  A
C3          C622   1.464       .  S
O4          Zr16   2.467       .  S
O4            C6   1.293       .  A
O5          Zr40   2.456       .  S
O5            C6   1.292       .  A
C6          C593   1.488       .  S
O7          Zr16   2.463       .  S
O7            C9   1.292       .  A
O8          Zr39   2.409       .  S
O8            C9   1.286       .  A
C9          C609   1.473       .  S
O10         Zr13   2.435       .  S
O10          C12   1.290       .  A
O11         Zr40   2.406       .  S
O11          C12   1.280       .  A
C12         C614   1.466       .  S
Zr13         O14   2.434       .  S
Zr13         O15   2.436       .  S
Zr13         O19   2.370       .  S
Zr13         O20   2.359       .  S
Zr13         O43   2.374       .  S
Zr13         O45   2.372       .  S
O14          H57   0.990       .  S
O15          H56   0.990       .  S
O15          H60   0.990       .  S
Zr16         O17   2.434       .  S
Zr16         O18   2.435       .  S
Zr16         O20   2.377       .  S
Zr16         O19   2.371       .  S
Zr16         O44   2.372       .  S
Zr16         O46   2.369       .  S
O17          H58   0.990       .  S
O17          H61   0.990       .  S
O18          H51   0.990       .  S
O19         Zr39   2.386       .  S
O20         Zr40   2.395       .  S
O20          H47   0.966       .  S
O21         Zr33   2.398       .  S
O21          C23   1.278       .  A
O22         Zr40   2.476       .  S
O22          C23   1.296       .  A
C23         C618   1.481       .  S
O24         Zr36   2.462       .  S
O24          C26   1.290       .  A
O25         Zr39   2.431       .  S
O25          C26   1.282       .  A
C26         C598   1.479       .  S
O27         Zr36   2.465       .  S
O27          C29   1.292       .  A
O28         Zr40   2.395       .  S
O28          C29   1.278       .  A
C29         C602   1.463       .  S
O30         Zr33   2.456       .  S
O30          C32   1.287       .  A
O31         Zr39   2.425       .  S
O31          C32   1.281       .  A
C32         C597   1.477       .  S
Zr33         O34   2.439       .  S
Zr33         O35   2.437       .  S
Zr33         O41   2.416       .  S
Zr33         O42   2.337       .  S
Zr33         O45   2.365       .  S
Zr33         O43   2.371       .  S
O34          H54   0.990       .  S
O34          H59   0.990       .  S
O35          H55   0.990       .  S
Zr36         O37   2.415       .  S
Zr36         O38   2.430       .  S
Zr36         O42   2.349       .  S
Zr36         O41   2.383       .  S
Zr36         O46   2.356       .  S
Zr36         O44   2.363       .  S
O37          H53   0.990       .  S
O38          H52   0.989       .  S
O38          H62   0.989       .  S
Zr39         O42   2.361       .  S
Zr39         O44   2.385       .  S
Zr39         O45   2.392       .  S
Zr40         O41   2.394       .  S
Zr40         O43   2.390       .  S
Zr40         O46   2.388       .  S
O41          H49   0.965       .  S
O44          H48   0.963       .  S
O45          H50   0.966       .  S
O63         Zr75   2.396       .  S
O63          C65   1.278       .  A
O64        Zr101   2.446       .  S
O64          C65   1.290       .  A
C65         C582   1.467       .  S
O66         Zr78   2.406       .  S
O66          C68   1.281       .  A
O67        Zr102   2.509       .  S
O67          C68   1.307       .  A
C68         C569   1.492       .  S
O69        Zr702   2.503   1_554  S
O69          C71   1.296       .  A
O70        Zr101   2.397       .  S
O70         C695   1.277       .  A
C71         O694   1.277       .  A
C71        C1202   1.487       .  S
O72         Zr75   2.378       .  S
O72          C74   1.270       .  A
O73        Zr102   2.389       .  S
O73          C74   1.273       .  A
C74         C585   1.426       .  S
Zr75         O76   2.434       .  S
Zr75         O77   2.436       .  S
Zr75         O81   2.372       .  S
Zr75         O82   2.374       .  S
Zr75        O105   2.370       .  S
Zr75        O107   2.358       .  S
O76         H119   0.990       .  S
O77         H118   0.990       .  S
O77         H122   0.990       .  S
Zr78        O693   2.504       .  S
Zr78         O79   2.434       .  S
Zr78         O80   2.428       .  S
Zr78         O82   2.371       .  S
Zr78         O81   2.362       .  S
Zr78        O106   2.304       .  S
Zr78        O108   2.425       .  S
O79         H120   0.990       .  S
O79         H747   0.990       .  S
O80         H737   0.990       .  S
O81        Zr101   2.371       .  S
O82        Zr102   2.402       .  S
O82         H109   0.964       .  S
O83         Zr95   2.438       .  S
O83          C85   1.287       .  A
O84        Zr102   2.481       .  S
O84          C85   1.299       .  A
C85         C594   1.496       .  S
O86         Zr98   2.502       .  S
O86          C88   1.297       .  A
O87        Zr101   2.406       .  S
O87          C88   1.279       .  A
C88         C577   1.488       .  S
O89         Zr98   2.471       .  S
O89          C91   1.291       .  A
O90        Zr102   2.427       .  S
O90          C91   1.290       .  A
C91         C573   1.484       .  S
O92         Zr95   2.398       .  S
O92          C94   1.279       .  A
O93        Zr101   2.379       .  S
O93          C94   1.280       .  A
C94         C589   1.430       .  S
Zr95         O96   2.436       .  S
Zr95         O97   2.436       .  S
Zr95        O103   2.363       .  S
Zr95        O104   2.382       .  S
Zr95        O107   2.381       .  S
Zr95        O105   2.345       .  S
O96         H116   0.990       .  S
O96         H121   0.990       .  S
O97         H117   0.990       .  S
Zr98         O99   2.434       .  S
Zr98        O100   2.436       .  S
Zr98        O104   2.384       .  S
Zr98        O103   2.352       .  S
Zr98        O108   2.411       .  S
Zr98        O106   2.322       .  S
O99         H115   0.990       .  S
O100        H114   0.990       .  S
O100        H124   0.990       .  S
Zr101       O104   2.395       .  S
Zr101       O106   2.377       .  S
Zr101       O107   2.378       .  S
Zr102       O103   2.380       .  S
Zr102       O105   2.382       .  S
Zr102       O108   2.388       .  S
O103        H111   0.964       .  S
O106        H110   0.949       .  S
O107        H112   0.966       .  S
H113        O704   0.990       .  S
H123        O703   0.990       .  S
O125      Zr2633   2.326       .  S
O125        C127   1.247   1_655  A
O126      Zr3283   2.484   1_454  S
O126        C127   1.270       .  A
C127        C553   1.481       .  S
O128       Zr140   2.474       .  S
O128        C130   1.295       .  A
O129       Zr164   2.414       .  S
O129        C130   1.284       .  A
C130        C561   1.485       .  S
O131      Zr3260   2.476       .  S
O131        C133   1.293   1_655  A
O132      Zr2659   2.365   1_455  S
O132        C133   1.276       .  A
C133        C581   1.470       .  S
O134       Zr137   2.393       .  S
O134        C136   1.270       .  A
O135       Zr164   2.418       .  S
O135        C136   1.279       .  A
C136        C549   1.461       .  S
Zr137      O2621   2.331       .  S
Zr137       O138   2.436       .  S
Zr137       O139   2.440       .  S
Zr137       O143   2.387       .  S
Zr137       O144   2.381       .  S
Zr137       O167   2.378       .  S
Zr137       O169   2.425       .  S
O138       H2677   0.990       .  S
O139        H180   0.986       .  S
O139        H184   0.990       .  S
Zr140      O3251   2.476   1_554  S
Zr140       O141   2.436       .  S
Zr140       O766   2.435   1_554  S
Zr140       O144   2.391       .  S
Zr140       O143   2.364       .  S
Zr140       O792   2.396   1_554  S
Zr140       O794   2.383   1_554  S
O141        H182   0.990       .  S
O141        H185   0.990       .  S
O142       Zr764   2.434       .  S
O142        H175   0.990       .  S
O143       Zr787   2.413   1_554  S
O144       Zr164   2.390       .  S
O144        H171   0.966       .  S
O145       Zr781   2.513       .  S
O145        C147   1.297   1_556  A
O146       Zr164   2.401       .  S
O146        C147   1.278       .  A
C147       C1189   1.489   1_554  S
O148       Zr160   2.379       .  S
O148        C150   1.276       .  A
O149       Zr163   2.477       .  S
O149        C150   1.296       .  A
C150        C545   1.478       .  S
O151       Zr160   2.430       .  S
O151        C153   1.278       .  A
O152       Zr788   2.416       .  S
O152        C153   1.274       .  A
C153        C566   1.471       .  S
O154      Zr1405   2.495   1_545  S
O154        C156   1.295   1_545  A
O155       Zr163   2.381       .  S
O155       C1404   1.276       .  A
C156       O1403   1.279       .  A
C156        C558   1.482   1_565  S
Zr157       O769   2.446       .  S
Zr157      O1402   2.505       .  S
Zr157       O158   2.442       .  S
Zr157      O2031   2.439       .  S
Zr157       O165   2.363       .  S
Zr157       O166   2.380       .  S
Zr157       O793   2.351       .  S
Zr157       O791   2.414       .  S
O158        H178   0.990       .  S
O158       H1431   0.991       .  S
O159      Zr2029   2.435   1_544  S
O159        H179   0.990       .  S
Zr160       O161   2.434       .  S
Zr160       O162   2.434       .  S
Zr160       O166   2.402       .  S
Zr160       O165   2.325       .  S
Zr160       O170   2.378       .  S
Zr160       O168   2.374       .  S
O161        H177   0.991       .  S
O162        H176   0.990       .  S
O162        H186   0.990       .  S
Zr163      O3246   2.483       .  S
Zr163      O2628   2.361       .  S
Zr163       O166   2.413       .  S
Zr163       O168   2.416       .  S
Zr163       O767   2.421       .  S
Zr163       O793   2.441       .  S
Zr164       O776   2.393   1_554  S
Zr164       O167   2.394       .  S
Zr164       O789   2.399   1_554  S
Zr164       O794   2.388   1_554  S
O165       Zr788   2.328       .  S
O165        H173   0.958       .  S
O167       Zr781   2.394   1_554  S
O168       Zr764   2.402       .  S
O168        H172   0.966       .  S
O169       Zr781   2.373   1_554  S
O169       Zr787   2.446   1_554  S
O169        H174   0.969       .  S
O170       Zr764   2.417       .  S
O170       Zr788   2.397       .  S
H181       O2634   0.990       .  S
H183       O1406   0.990       .  S
O187      Zr2695   2.373   1_455  S
O187        C189   1.274       .  A
O188      Zr2721   2.475   1_455  S
O188        C189   1.296       .  A
C189        C529   1.472       .  S
O190       Zr202   2.359       .  S
O190        C192   1.270       .  A
O191       Zr226   2.649       .  S
O191        C192   1.337       .  A
C192        C537   1.533       .  S
O193      Zr2698   2.460       .  S
O193        C195   1.289   1_655  A
O194      Zr2721   2.365   1_455  S
O194        C195   1.276       .  A
C195        C613   1.450       .  S
O196       Zr199   2.405       .  S
O196        C198   1.279       .  A
O197       Zr226   2.464       .  S
O197        C198   1.295       .  A
C198        C546   1.477       .  S
Zr199      O2683   2.374       .  S
Zr199       O200   2.437       .  S
Zr199       O201   2.419       .  S
Zr199       O205   2.364       .  S
Zr199       O206   2.361       .  S
Zr199       O229   2.327       .  S
Zr199       O231   2.380       .  S
O200       H2739   0.991       .  S
O201        H242   0.984       .  S
O201        H246   0.990       .  S
Zr202      O2689   2.455       .  S
Zr202       O203   2.437       .  S
Zr202       O204   2.435       .  S
Zr202       O206   2.389       .  S
Zr202       O205   2.326       .  S
Zr202       O230   2.339       .  S
Zr202       O232   2.389       .  S
O203        H244   0.990       .  S
O203        H247   0.990       .  S
O204        H237   0.990       .  S
O205       Zr225   2.371       .  S
O206       Zr226   2.397       .  S
O206        H233   0.965       .  S
O207       Zr219   2.340       .  S
O207        C209   1.266       .  A
O208       Zr226   2.648       .  S
O208        C209   1.336       .  A
C209       C1789   1.537       .  S
O210       Zr222   2.389       .  S
O210        C212   1.275       .  A
O211       Zr225   2.473       .  S
O211        C212   1.294       .  A
C212        C550   1.471       .  S
O213       Zr222   2.467       .  S
O213        C215   1.293       .  A
O214       Zr226   2.398       .  S
O214        C215   1.285       .  A
C215        C610   1.474       .  S
O216      Zr1467   2.502   1_545  S
O216        C218   1.295   1_545  A
O217       Zr225   2.401       .  S
O217       C1466   1.282       .  A
C218       O1465   1.280       .  A
C218        C533   1.485   1_565  S
Zr219      O1464   2.495       .  S
Zr219       O220   2.435       .  S
Zr219      O1469   2.434       .  S
Zr219       O227   2.401       .  S
Zr219       O228   2.317       .  S
Zr219       O231   2.353       .  S
Zr219       O229   2.411       .  S
O220        H240   0.990       .  S
O220       H1493   0.990       .  S
O221      Zr1467   2.435   1_545  S
O221        H241   0.990       .  S
Zr222       O223   2.434       .  S
Zr222       O224   2.435       .  S
Zr222       O228   2.387       .  S
Zr222       O227   2.358       .  S
Zr222       O232   2.331       .  S
Zr222       O230   2.400       .  S
O223        H239   0.990       .  S
O224        H238   0.990       .  S
O224        H248   0.990       .  S
Zr225      O2684   2.473       .  S
Zr225      O2690   2.368       .  S
Zr225       O228   2.376       .  S
Zr225       O230   2.389       .  S
Zr225       O231   2.374       .  S
Zr226       O227   2.410       .  S
Zr226       O229   2.387       .  S
Zr226       O232   2.387       .  S
O227        H235   0.966       .  S
O230        H234   0.966       .  S
O231        H236   0.964       .  S
H243       O2696   0.991       .  S
H245       O1468   0.990   1_545  S
O249       Zr261   2.621       .  S
O249        C251   1.320       .  A
O250       Zr287   2.320       .  S
O250        C251   1.256       .  A
C251        C605   1.517       .  S
O252       Zr888   2.392       .  S
O252        C254   1.278       .  A
O253       Zr912   2.405       .  S
O253        C254   1.279       .  A
C254        C514   1.456       .  S
O255       Zr888   2.385       .  S
O255        C881   1.259       .  A
O256       Zr287   2.536       .  S
O256        C257   1.301       .  A
C257        O879   1.259       .  A
C257       C1194   1.491       .  S
O258       Zr261   2.486       .  S
O258        C260   1.298       .  A
O259       Zr288   2.415       .  S
O259        C260   1.286       .  A
C260        C562   1.484       .  S
Zr261       O262   2.430       .  S
Zr261       O263   2.435       .  S
Zr261       O267   2.338       .  S
Zr261       O268   2.415       .  S
Zr261       O291   2.424       .  S
Zr261       O293   2.340       .  S
O262        H305   0.990       .  S
O263        H304   0.990       .  S
O263        H308   0.990       .  S
Zr264       O876   2.394       .  S
Zr264       O879   2.385   1_556  S
Zr264       O889   2.443       .  S
Zr264       O890   2.436       .  S
Zr264       O268   2.358   1_556  S
Zr264       O267   2.388   1_556  S
Zr264       O292   2.376   1_556  S
Zr264       O294   2.360   1_556  S
O265       Zr888   2.443       .  S
O265        H306   0.988       .  S
O265        H309   0.989       .  S
O266       Zr888   2.436       .  S
O266        H299   0.990       .  S
O267       Zr287   2.382       .  S
O268       Zr288   2.389       .  S
O268        H295   0.964       .  S
O269       Zr281   2.495       .  S
O269        C271   1.292       .  A
O270       Zr288   2.401       .  S
O270        C271   1.277       .  A
C271        C521   1.488       .  S
O272       Zr284   2.503       .  S
O272        C274   1.294       .  A
O273       Zr287   2.366       .  S
O273        C274   1.267       .  A
C274        C526   1.467       .  S
O275       Zr284   2.503       .  S
O275        C277   1.298       .  A
O276       Zr288   2.415       .  S
O276        C277   1.280       .  A
C277        C522   1.487       .  S
O278       Zr281   2.385       .  S
O278        C280   1.278       .  A
O279       Zr287   2.457       .  S
O279        C280   1.292       .  A
C280        C518   1.473       .  S
Zr281       O282   2.436       .  S
Zr281       O283   2.434       .  S
Zr281       O289   2.298       .  S
Zr281       O290   2.417       .  S
Zr281       O293   2.368       .  S
Zr281       O291   2.365       .  S
O282        H302   0.990       .  S
O282        H307   0.990       .  S
O283        H303   0.990       .  S
Zr284       O285   2.433       .  S
Zr284       O286   2.435   1_554  S
Zr284       O290   2.402       .  S
Zr284       O289   2.346       .  S
Zr284       O294   2.392       .  S
Zr284       O292   2.358       .  S
O285        H301   0.990       .  S
O286        H310   0.990       .  S
O286        H924   0.990       .  S
Zr287       O290   2.380       .  S
Zr287       O292   2.397       .  S
Zr287       O293   2.386       .  S
Zr288       O877   2.407   1_554  S
Zr288       O289   2.382       .  S
Zr288       O291   2.393       .  S
Zr288       O294   2.385       .  S
O289        H297   0.950       .  S
O292        H296   0.959       .  S
O293        H298   0.965       .  S
H300        O910   0.990       .  S
O311       Zr323   2.492       .  S
O311        C313   1.294       .  A
O312       Zr349   2.379       .  S
O312        C313   1.275       .  A
C313        C574   1.474       .  S
O314       Zr326   2.412       .  S
O314        C316   1.280       .  A
O315       Zr350   2.427       .  S
O315        C316   1.288       .  A
C316        C517   1.464       .  S
O317       Zr326   2.385       .  S
O317        C319   1.280       .  A
O318       Zr349   2.458       .  S
O318        C319   1.291       .  A
C319        C601   1.475       .  S
O320       Zr323   2.309       .  S
O320        C322   1.262       .  A
O321       Zr350   2.679       .  S
O321        C322   1.342       .  A
C322        C538   1.539       .  S
Zr323       O324   2.433       .  S
Zr323       O325   2.436       .  S
Zr323       O329   2.332       .  S
Zr323       O330   2.422       .  S
Zr323       O353   2.406       .  S
Zr323       O355   2.310       .  S
O324        H367   0.990       .  S
O325        H366   0.990       .  S
O325        H370   0.990       .  S
Zr326       O327   2.413       .  S
Zr326       O328   2.431       .  S
Zr326       O330   2.337       .  S
Zr326       O329   2.386       .  S
Zr326       O354   2.328       .  S
Zr326       O356   2.340       .  S
O327        H368   0.990       .  S
O327        H371   0.990       .  S
O328        H361   0.990       .  S
O329       Zr349   2.356       .  S
O330       Zr350   2.404       .  S
O330        H357   0.964       .  S
O331       Zr343   2.531       .  S
O331        C333   1.307       .  A
O332       Zr350   2.413       .  S
O332        C333   1.282       .  A
C333        C505   1.505       .  S
O334       Zr346   2.521       .  S
O334        C336   1.303       .  A
O335       Zr349   2.356       .  S
O335        C336   1.273       .  A
C336        C510   1.477       .  S
O337       Zr346   2.384       .  S
O337        C339   1.276       .  A
O338       Zr350   2.646       .  S
O338        C339   1.337       .  A
C339        C542   1.533       .  S
O340       Zr343   2.411       .  S
O340        C342   1.285       .  A
O341       Zr349   2.411       .  S
O341        C342   1.285       .  A
C342        C513   1.446       .  S
Zr343       O344   2.437       .  S
Zr343       O345   2.434       .  S
Zr343       O351   2.317       .  S
Zr343       O352   2.418       .  S
Zr343       O355   2.393       .  S
Zr343       O353   2.348       .  S
O344        H364   0.990       .  S
O344        H369   0.990       .  S
O345        H365   0.990       .  S
Zr346       O347   2.434       .  S
Zr346       O348   2.438       .  S
Zr346       O352   2.347       .  S
Zr346       O351   2.429       .  S
Zr346       O356   2.396       .  S
Zr346       O354   2.335       .  S
O347        H363   0.990       .  S
O348        H362   0.990       .  S
O348        H372   0.990       .  S
Zr349       O352   2.390       .  S
Zr349       O354   2.369       .  S
Zr349       O355   2.378       .  S
Zr350       O351   2.413       .  S
Zr350       O353   2.402       .  S
Zr350       O356   2.401       .  S
O351        H359   0.964       .  S
O354        H358   0.963       .  S
O355        H360   0.965       .  S
O373      Zr1633   2.399       .  S
O373        C375   1.269       .  A
O374      Zr1659   2.513       .  S
O374        C375   1.295       .  A
C375        C554   1.487       .  S
O376       Zr388   2.388       .  S
O376        C378   1.278       .  A
O377       Zr412   2.496       .  S
O377        C378   1.301       .  A
C378        C525   1.479       .  S
O379       Zr388   2.447       .  S
O379       C1629   1.288   1_545  A
O380      Zr1659   2.378       .  S
O380        C381   1.278       .  A
C381       O1627   1.288       .  A
C381        C621   1.452       .  S
O382       Zr385   2.389       .  S
O382        C384   1.276       .  A
O383       Zr412   2.437       .  S
O383        C384   1.288       .  A
C384        C502   1.465   1_554  S
Zr385      O1621   2.400       .  S
Zr385       O386   2.438       .  S
Zr385       O387   2.443       .  S
Zr385       O391   2.368       .  S
Zr385       O392   2.351       .  S
Zr385       O415   2.368       .  S
Zr385       O417   2.358       .  S
O386       H1677   0.990       .  S
O387        H432   0.990   1_455  S
O387       H2924   0.989   1_455  S
Zr388       O389   2.437       .  S
Zr388       O390   2.435       .  S
Zr388       O392   2.398       .  S
Zr388       O391   2.333       .  S
Zr388       O416   2.359       .  S
Zr388       O418   2.362       .  S
O389        H430   0.990       .  S
O389        H433   0.990       .  S
O390        H423   0.990       .  S
O391       Zr411   2.340       .  S
O392       Zr412   2.378       .  S
O392        H419   0.963       .  S
O393       Zr405   2.426       .  S
O393        C395   1.286       .  A
O394       Zr412   2.474       .  S
O394        C395   1.298       .  A
C395        C617   1.474       .  S
O396       Zr408   2.500       .  S
O396        C398   1.301       .  A
O397       Zr411   2.408       .  S
O397        C398   1.283       .  A
C398        C497   1.477       .  S
O399       Zr408   2.553       .  S
O399        C401   1.313       .  A
O400       Zr412   2.427       .  S
O400        C401   1.284       .  A
C401        C606   1.516       .  S
O402      Zr2901   2.510       .  S
O402       C2900   1.299       .  A
O403       Zr411   2.385       .  S
O403        C404   1.282       .  A
C404       O2898   1.301       .  A
C404       C3030   1.505   1_455  S
Zr405      O2898   2.518       .  S
Zr405       O406   2.437       .  S
Zr405      O2903   2.433   1_455  S
Zr405       O413   2.422       .  S
Zr405       O414   2.344       .  S
Zr405       O417   2.370       .  S
Zr405       O415   2.400       .  S
O406        H426   0.990       .  S
O406       H2927   0.990       .  S
O407      Zr2901   2.433       .  S
O407        H427   0.990       .  S
Zr408       O409   2.433       .  S
Zr408       O410   2.431       .  S
Zr408       O414   2.382       .  S
Zr408       O413   2.335       .  S
Zr408       O418   2.363       .  S
Zr408       O416   2.377       .  S
O409        H425   0.990       .  S
O410        H424   0.990       .  S
O410        H434   0.990       .  S
Zr411      O1622   2.508   1_545  S
Zr411      O1628   2.376       .  S
Zr411       O414   2.374       .  S
Zr411       O416   2.401       .  S
Zr411       O417   2.382       .  S
Zr412       O413   2.410       .  S
Zr412       O415   2.403       .  S
Zr412       O418   2.393       .  S
O413        H421   0.963       .  S
O416        H420   0.965       .  S
O417        H422   0.965       .  S
H428       O2883   0.989       .  S
H429       O1634   0.990       .  S
H431       O2902   0.990       .  S
O435      Zr1695   2.409       .  S
O435        C437   1.275       .  A
O436      Zr1721   2.505       .  S
O436        C437   1.297       .  A
C437        C530   1.503       .  S
O438       Zr450   2.344       .  S
O438        C440   1.271       .  A
O439       Zr474   2.533       .  S
O439        C440   1.309       .  A
C440        C509   1.482       .  S
O441      Zr1698   2.434       .  S
O441        C443   1.285       .  A
O442      Zr1721   2.365       .  S
O442        C443   1.278       .  A
C443        C590   1.431       .  S
O444       Zr447   2.481       .  S
O444        C446   1.294       .  A
O445       Zr474   2.414       .  S
O445        C446   1.282       .  A
C446        C498   1.483       .  S
Zr447      O1683   2.406   1_545  S
Zr447       O448   2.429       .  S
Zr447       O449   2.430   1_455  S
Zr447       O453   2.383       .  S
Zr447       O454   2.342       .  S
Zr447       O477   2.335       .  S
Zr447       O479   2.416       .  S
O448       H1739   0.990       .  S
O449        H494   0.988       .  S
O449       H2986   0.987       .  S
Zr450      O1689   2.439       .  S
Zr450       O451   2.436       .  S
Zr450       O452   2.436       .  S
Zr450       O454   2.380       .  S
Zr450       O453   2.311       .  S
Zr450       O478   2.335       .  S
Zr450       O480   2.371       .  S
O451        H492   0.990       .  S
O451        H495   0.990       .  S
O452        H485   0.990       .  S
O453       Zr473   2.359       .  S
O454       Zr474   2.380       .  S
O454        H481   0.962       .  S
O455       Zr467   2.373   1_655  S
O455        C457   1.268       .  A
O456       Zr474   2.571       .  S
O456        C457   1.314   1_455  A
C457       C3002   1.516       .  S
O458       Zr470   2.373       .  S
O458        C460   1.277       .  A
O459       Zr473   2.477       .  S
O459        C460   1.297       .  A
C460        C501   1.468       .  S
O461       Zr470   2.413       .  S
O461        C463   1.284       .  A
O462       Zr474   2.331       .  S
O462        C463   1.268       .  A
C463        C586   1.412       .  S
O464      Zr2963   2.480       .  S
O464        C466   1.293       .  A
O465       Zr473   2.393       .  S
O465       C2962   1.283   1_455  A
C466       O2961   1.286       .  A
C466        C557   1.483       .  S
Zr467      O2960   2.504   1_455  S
Zr467       O468   2.439   1_455  S
Zr467      O2965   2.435   1_455  S
Zr467       O475   2.416       .  S
Zr467       O476   2.319       .  S
Zr467       O479   2.362       .  S
Zr467       O477   2.416       .  S
O468        H488   0.990       .  S
O468       H2989   0.990       .  S
O469      Zr2963   2.436       .  S
O469        H489   0.990       .  S
Zr470       O471   2.434       .  S
Zr470       O472   2.437       .  S
Zr470       O476   2.369       .  S
Zr470       O475   2.343       .  S
Zr470       O480   2.333       .  S
Zr470       O478   2.347       .  S
O471        H487   0.990       .  S
O472        H486   0.990       .  S
O472        H496   0.990       .  S
Zr473      O1684   2.505   1_545  S
Zr473      O1690   2.359       .  S
Zr473       O476   2.357       .  S
Zr473       O478   2.388       .  S
Zr473       O479   2.394       .  S
Zr474       O475   2.408       .  S
Zr474       O477   2.385       .  S
Zr474       O480   2.406       .  S
O475        H483   0.965       .  S
O478        H482   0.965       .  S
O479       H2980   0.963       .  S
H484       O2975   0.963       .  S
H490       O2945   0.989       .  S
H491       O1696   0.990       .  S
H493       O2964   0.990       .  S
C497        C498   1.346       .  D
C497        H499   1.087       .  S
C498        H500   1.087       .  S
C501       C1126   1.360       .  D
C501        H503   1.086       .  S
C502       C1125   1.356       .  D
C502        H504   1.086       .  S
C505        C506   1.381       .  D
C505        H507   1.085       .  S
C506       C2953   1.517       .  S
C506        H508   1.085       .  S
C509        C510   1.373       .  D
C509        H511   1.086       .  S
C510        H512   1.086       .  S
C513        C514   1.344       .  D
C513        H515   1.087       .  S
C514        H516   1.087       .  S
C517        C518   1.356       .  D
C517        H519   1.087       .  S
C518        H520   1.087       .  S
C521        C522   1.366       .  D
C521        H523   1.085       .  S
C522        H524   1.086       .  S
C525        C526   1.362       .  D
C525        H527   1.082       .  S
C526        H528   1.086       .  S
C529        C530   1.361       .  D
C529        H531   1.086       .  S
C530        H532   1.083       .  S
C533        C534   1.357       .  D
C533        H535   1.087       .  S
C534       C2900   1.506       .  S
C534       H3032   1.085       .  S
H536       C3030   1.085       .  S
C537        C538   1.415       .  D
C537        H539   1.085       .  S
C538        H540   1.085       .  S
C541       C1457   1.538   1_545  S
C541        C542   1.410       .  D
C541       H1791   1.085       .  S
C542        H544   1.085       .  S
H543       C1789   1.085       .  S
C545        C546   1.363       .  D
C545        H547   1.086       .  S
C546        H548   1.086       .  S
C549        C550   1.355       .  D
C549        H551   1.086       .  S
C550        H552   1.085       .  S
C553        C554   1.365       .  D
C553        H555   1.086       .  S
C554        H556   1.082       .  S
C557        C558   1.349       .  D
C557        H559   1.087   1_545  S
C558       H1808   1.087       .  S
H560       C1806   1.087       .  S
C561        C562   1.343       .  D
C561        H563   1.087       .  S
C562        H564   1.087       .  S
C565        C771   1.477       .  S
C565        C566   1.350       .  D
C565        H567   1.085       .  S
C566        H568   1.084       .  S
C569        C570   1.372       .  D
C569        H571   1.084       .  S
C570        C881   1.492       .  S
C570        H572   1.086       .  S
C573        C574   1.346       .  D
C573        H575   1.086       .  S
C574        H576   1.087       .  S
C577        C578   1.367       .  D
C577        H579   1.085       .  S
C578        C695   1.487       .  S
C578        H580   1.085       .  S
C581        C582   1.355       .  D
C581        H583   1.086       .  S
C582        H584   1.087       .  S
C585        C586   1.329       .  D
C585        H587   1.089       .  S
C586        H588   1.087       .  S
C589        C590   1.329       .  D
C589        H591   1.080       .  S
C590        H592   1.086       .  S
C593        C594   1.355       .  D
C593        H595   1.087       .  S
C594        H596   1.086       .  S
C597        C598   1.355       .  D
C597        H599   1.084       .  S
C598        H600   1.085       .  S
C601        C602   1.349       .  D
C601        H603   1.087       .  S
C602        H604   1.087       .  S
C605        C606   1.384       .  D
C605        H607   1.085       .  S
C606        H608   1.087       .  S
C609        C610   1.348       .  D
C609        H611   1.087       .  S
C610        H612   1.087       .  S
C613        C614   1.335       .  D
C613        H615   1.088       .  S
C614        H616   1.086       .  S
C617        C618   1.363       .  D
C617        H619   1.086       .  S
C618        H620   1.086       .  S
C621        C622   1.337       .  D
C621        H623   1.088       .  S
C622        H624   1.087       .  S
O625       Zr637   2.427       .  S
O625        C627   1.288       .  A
O626       Zr663   2.401       .  S
O626        C627   1.280       .  A
C627       C1246   1.465       .  S
O628       Zr640   2.462       .  S
O628        C630   1.292       .  A
O629       Zr664   2.455       .  S
O629        C630   1.292       .  A
C630       C1217   1.485       .  S
O631       Zr640   2.448       .  S
O631        C633   1.288       .  A
O632       Zr663   2.409       .  S
O632        C633   1.287       .  A
C633       C1233   1.469       .  S
O634       Zr637   2.430       .  S
O634        C636   1.289       .  A
O635       Zr664   2.410       .  S
O635        C636   1.281       .  A
C636       C1238   1.467       .  S
Zr637       O638   2.434       .  S
Zr637       O639   2.435       .  S
Zr637       O643   2.366       .  S
Zr637       O644   2.359       .  S
Zr637       O667   2.376       .  S
Zr637       O669   2.370       .  S
O638        H681   0.990       .  S
O639        H680   0.990       .  S
O639        H684   0.990       .  S
Zr640       O641   2.435       .  S
Zr640       O642   2.436       .  S
Zr640       O644   2.373       .  S
Zr640       O643   2.371       .  S
Zr640       O668   2.373       .  S
Zr640       O670   2.368       .  S
O641        H682   0.990       .  S
O641        H685   0.990       .  S
O642        H675   0.990       .  S
O643       Zr663   2.383       .  S
O644       Zr664   2.395       .  S
O644        H671   0.966       .  S
O645       Zr657   2.396       .  S
O645        C647   1.278       .  A
O646       Zr664   2.479       .  S
O646        C647   1.297       .  A
C647       C1242   1.483       .  S
O648       Zr660   2.464       .  S
O648        C650   1.290       .  A
O649       Zr663   2.430       .  S
O649        C650   1.282       .  A
C650       C1222   1.479       .  S
O651       Zr660   2.468       .  S
O651        C653   1.293       .  A
O652       Zr664   2.394       .  S
O652        C653   1.278       .  A
C653       C1226   1.464       .  S
O654       Zr657   2.456       .  S
O654        C656   1.287       .  A
O655       Zr663   2.425       .  S
O655        C656   1.281       .  A
C656       C1221   1.477       .  S
Zr657       O658   2.439       .  S
Zr657       O659   2.437       .  S
Zr657       O665   2.416       .  S
Zr657       O666   2.338       .  S
Zr657       O669   2.365       .  S
Zr657       O667   2.371       .  S
O658        H678   0.990       .  S
O658        H683   0.990       .  S
O659        H679   0.990       .  S
Zr660       O661   2.419       .  S
Zr660       O662   2.432       .  S
Zr660       O666   2.349       .  S
Zr660       O665   2.384       .  S
Zr660       O670   2.358       .  S
Zr660       O668   2.367       .  S
O661        H677   0.990       .  S
O662        H676   0.989       .  S
O662        H686   0.989       .  S
Zr663       O666   2.361       .  S
Zr663       O668   2.386       .  S
Zr663       O669   2.391       .  S
Zr664       O665   2.394       .  S
Zr664       O667   2.390       .  S
Zr664       O670   2.389       .  S
O665        H673   0.965       .  S
O668        H672   0.963       .  S
O669        H674   0.966       .  S
O687       Zr699   2.400       .  S
O687        C689   1.279       .  A
O688       Zr725   2.445       .  S
O688        C689   1.290       .  A
C689       C1206   1.467       .  S
O690       Zr702   2.404       .  S
O690        C692   1.281       .  A
O691       Zr726   2.507       .  S
O691        C692   1.306       .  A
C692       C1193   1.490       .  S
O693        C695   1.296       .  A
O694       Zr725   2.398   1_554  S
O696       Zr699   2.396       .  S
O696        C698   1.275       .  A
O697       Zr726   2.365       .  S
O697        C698   1.275       .  A
C698       C1209   1.433       .  S
Zr699       O700   2.435       .  S
Zr699       O701   2.436       .  S
Zr699       O705   2.374       .  S
Zr699       O706   2.366       .  S
Zr699       O729   2.365       .  S
Zr699       O731   2.360       .  S
O700        H743   0.990       .  S
O701        H742   0.990       .  S
O701        H746   0.990       .  S
Zr702       O703   2.434   1_556  S
Zr702       O704   2.427   1_556  S
Zr702       O706   2.374       .  S
Zr702       O705   2.361       .  S
Zr702       O730   2.305       .  S
Zr702       O732   2.426       .  S
O703        H744   0.990       .  S
O705       Zr725   2.373       .  S
O706       Zr726   2.399       .  S
O706        H733   0.964       .  S
O707       Zr719   2.432       .  S
O707        C709   1.286       .  A
O708       Zr726   2.479       .  S
O708        C709   1.297       .  A
C709       C1218   1.496       .  S
O710       Zr722   2.500       .  S
O710        C712   1.297       .  A
O711       Zr725   2.408       .  S
O711        C712   1.279       .  A
C712       C1201   1.487   1_556  S
O713       Zr722   2.468       .  S
O713        C715   1.291       .  A
O714       Zr726   2.425       .  S
O714        C715   1.290       .  A
C715       C1197   1.484       .  S
O716       Zr719   2.397       .  S
O716        C718   1.279       .  A
O717       Zr725   2.382       .  S
O717        C718   1.280       .  A
C718       C1213   1.431       .  S
Zr719       O720   2.436       .  S
Zr719       O721   2.436       .  S
Zr719       O727   2.363       .  S
Zr719       O728   2.381       .  S
Zr719       O731   2.378       .  S
Zr719       O729   2.346       .  S
O720        H740   0.990       .  S
O720        H745   0.990       .  S
O721        H741   0.990       .  S
Zr722       O723   2.434       .  S
Zr722       O724   2.435       .  S
Zr722       O728   2.384       .  S
Zr722       O727   2.353       .  S
Zr722       O732   2.414       .  S
Zr722       O730   2.322       .  S
O723        H739   0.990       .  S
O724        H738   0.990       .  S
O724        H748   0.990       .  S
Zr725       O728   2.394       .  S
Zr725       O730   2.375       .  S
Zr725       O731   2.379       .  S
Zr726       O727   2.379       .  S
Zr726       O729   2.380       .  S
Zr726       O732   2.384       .  S
O727        H735   0.965       .  S
O730        H734   0.948       .  S
O731        H736   0.966       .  S
O749      Zr3257   2.328       .  S
O749        C751   1.248   1_655  A
O750      Zr2659   2.485   1_455  S
O750        C751   1.269       .  A
C751       C1177   1.482       .  S
O752       Zr764   2.461       .  S
O752        C754   1.293       .  A
O753       Zr788   2.415       .  S
O753        C754   1.284       .  A
C754       C1185   1.482       .  S
O755      Zr2636   2.477   1_556  S
O755        C757   1.294   1_655  A
O756      Zr3283   2.364   1_455  S
O756        C757   1.276       .  A
C757       C1205   1.471       .  S
O758       Zr761   2.376       .  S
O758        C760   1.266       .  A
O759       Zr788   2.402       .  S
O759        C760   1.276       .  A
C760       C1173   1.446       .  S
Zr761      O3245   2.317       .  S
Zr761       O762   2.437       .  S
Zr761       O763   2.440       .  S
Zr761       O767   2.396       .  S
Zr761       O768   2.386       .  S
Zr761       O791   2.404       .  S
Zr761       O793   2.424       .  S
O762       H3301   0.990       .  S
O763        H804   0.988       .  S
O763        H808   0.989       .  S
Zr764      O2627   2.477       .  S
Zr764       O765   2.437       .  S
Zr764       O768   2.399       .  S
Zr764       O767   2.377       .  S
O765        H806   0.990       .  S
O765        H809   0.990       .  S
O766        H799   0.990       .  S
O768       Zr788   2.379       .  S
O768        H795   0.966       .  S
O769        C771   1.283       .  A
O770       Zr788   2.421       .  S
O770        C771   1.276       .  A
O772       Zr784   2.409       .  S
O772        C774   1.280       .  A
O773       Zr787   2.461       .  S
O773        C774   1.291       .  A
C774       C1169   1.483       .  S
O775       Zr784   2.508       .  S
O775        C777   1.296       .  A
O776        C777   1.275       .  A
C777       C1190   1.486       .  S
O778      Zr2029   2.505   1_545  S
O778        C780   1.297   1_545  A
O779       Zr787   2.388       .  S
O779       C2028   1.281       .  A
C780       O2027   1.275       .  A
C780       C1182   1.478   1_565  S
Zr781      O2026   2.490       .  S
Zr781       O782   2.438       .  S
Zr781      O1407   2.438   1_556  S
Zr781       O789   2.341       .  S
Zr781       O790   2.405       .  S
O782        H802   0.990       .  S
O782       H2055   0.990       .  S
O783      Zr1405   2.435   1_545  S
O783        H803   0.990       .  S
Zr784       O785   2.435       .  S
Zr784       O786   2.434       .  S
Zr784       O790   2.414       .  S
Zr784       O789   2.317       .  S
Zr784       O794   2.362       .  S
Zr784       O792   2.380       .  S
O785        H801   0.991       .  S
O786        H800   0.990       .  S
O786        H810   0.990       .  S
Zr787      O2622   2.479   1_556  S
Zr787      O3252   2.376       .  S
Zr787       O790   2.385       .  S
Zr787       O792   2.405       .  S
Zr788       O791   2.413       .  S
O789        H797   0.950       .  S
O792        H796   0.966       .  S
O793        H798   0.968       .  S
H805       O3258   0.990       .  S
H807       O2030   0.990       .  S
O811      Zr3319   2.374   1_455  S
O811        C813   1.274       .  A
O812      Zr3345   2.472   1_455  S
O812        C813   1.295       .  A
C813       C1153   1.472       .  S
O814       Zr826   2.354       .  S
O814        C816   1.269       .  A
O815       Zr850   2.655       .  S
O815        C816   1.339       .  A
C816       C1161   1.532       .  S
O817      Zr3322   2.458       .  S
O817        C819   1.288   1_655  A
O818      Zr3345   2.366   1_455  S
O818        C819   1.277       .  A
C819       C1237   1.450       .  S
O820       Zr823   2.428       .  S
O820        C822   1.284       .  A
O821       Zr850   2.454       .  S
O821        C822   1.293       .  A
C822       C1170   1.481       .  S
Zr823      O3307   2.379       .  S
Zr823       O824   2.433       .  S
Zr823       O825   2.430       .  S
Zr823       O829   2.372       .  S
Zr823       O830   2.358       .  S
Zr823       O853   2.337       .  S
Zr823       O855   2.410       .  S
O824       H3363   0.990       .  S
O825        H866   0.982       .  S
O825        H870   0.990       .  S
Zr826      O3313   2.460       .  S
Zr826       O827   2.437       .  S
Zr826       O828   2.436       .  S
Zr826       O830   2.395       .  S
Zr826       O829   2.319       .  S
Zr826       O854   2.349       .  S
Zr826       O856   2.390       .  S
O827        H868   0.990       .  S
O827        H871   0.990       .  S
O828        H861   0.990       .  S
O829       Zr849   2.375       .  S
O830       Zr850   2.398       .  S
O830        H857   0.965       .  S
O831       Zr843   2.341       .  S
O831        C833   1.267       .  A
O832       Zr850   2.648       .  S
O832        C833   1.336       .  A
C833       C2413   1.538       .  S
O834       Zr846   2.348       .  S
O834        C836   1.271       .  A
O835       Zr849   2.467       .  S
O835        C836   1.293       .  A
C836       C1174   1.467       .  S
O837       Zr846   2.447       .  S
O837        C839   1.288       .  A
O838       Zr850   2.403       .  S
O838        C839   1.286       .  A
C839       C1234   1.468       .  S
O840      Zr2091   2.508   1_545  S
O840        C842   1.296   1_545  A
O841       Zr849   2.395       .  S
O841       C2090   1.283       .  A
C842       O2089   1.281       .  A
C842       C1157   1.487   1_565  S
Zr843      O2088   2.509       .  S
Zr843       O844   2.437       .  S
Zr843      O2093   2.435       .  S
Zr843       O851   2.401       .  S
Zr843       O852   2.311       .  S
Zr843       O855   2.339       .  S
Zr843       O853   2.414       .  S
O844        H864   0.990       .  S
O844       H2117   0.990       .  S
O845      Zr2091   2.434   1_545  S
O845        H865   0.990       .  S
Zr846       O847   2.434       .  S
Zr846       O848   2.435       .  S
Zr846       O852   2.378       .  S
Zr846       O851   2.356       .  S
Zr846       O856   2.312       .  S
Zr846       O854   2.386       .  S
O847        H863   0.990       .  S
O848        H862   0.990       .  S
O848        H872   0.990       .  S
Zr849      O3308   2.491       .  S
Zr849      O3314   2.366       .  S
Zr849       O852   2.373       .  S
Zr849       O854   2.394       .  S
Zr849       O855   2.381       .  S
Zr850       O851   2.408       .  S
Zr850       O853   2.390       .  S
Zr850       O856   2.385       .  S
O851        H859   0.965       .  S
O854        H858   0.966       .  S
O855        H860   0.963       .  S
H867       O3320   0.991       .  S
H869       O2092   0.990   1_545  S
O873       Zr885   2.603       .  S
O873        C875   1.315       .  A
O874       Zr911   2.331       .  S
O874        C875   1.256       .  A
C875       C1229   1.514       .  S
O876        C878   1.279       .  A
O877        C878   1.279       .  A
C878       C1138   1.458       .  S
O880       Zr911   2.537       .  S
O880        C881   1.301       .  A
O882       Zr885   2.474       .  S
O882        C884   1.296       .  A
O883       Zr912   2.416       .  S
O883        C884   1.286       .  A
C884       C1186   1.480       .  S
Zr885       O886   2.430       .  S
Zr885       O887   2.435       .  S
Zr885       O891   2.339       .  S
Zr885       O892   2.412       .  S
Zr885       O915   2.423       .  S
Zr885       O917   2.344       .  S
O886        H929   0.990       .  S
O887        H928   0.990       .  S
O887        H932   0.990       .  S
Zr888       O892   2.358       .  S
Zr888       O891   2.386       .  S
Zr888       O916   2.374       .  S
Zr888       O918   2.360       .  S
O889        H930   0.988       .  S
O889        H933   0.989       .  S
O890        H923   0.990       .  S
O891       Zr911   2.383       .  S
O892       Zr912   2.388       .  S
O892        H919   0.964       .  S
O893       Zr905   2.496       .  S
O893        C895   1.292       .  A
O894       Zr912   2.401       .  S
O894        C895   1.277       .  A
C895       C1145   1.488       .  S
O896       Zr908   2.501       .  S
O896        C898   1.295       .  A
O897       Zr911   2.365       .  S
O897        C898   1.270       .  A
C898       C1150   1.465       .  S
O899       Zr908   2.503       .  S
O899        C901   1.298       .  A
O900       Zr912   2.415       .  S
O900        C901   1.280       .  A
C901       C1146   1.487       .  S
O902       Zr905   2.385       .  S
O902        C904   1.278       .  A
O903       Zr911   2.457       .  S
O903        C904   1.292       .  A
C904       C1142   1.473       .  S
Zr905       O906   2.436       .  S
Zr905       O907   2.434       .  S
Zr905       O913   2.296       .  S
Zr905       O914   2.417       .  S
Zr905       O917   2.368       .  S
Zr905       O915   2.366       .  S
O906        H926   0.990       .  S
O906        H931   0.990       .  S
O907        H927   0.990       .  S
Zr908       O909   2.433       .  S
Zr908       O910   2.435       .  S
Zr908       O914   2.402       .  S
Zr908       O913   2.343       .  S
Zr908       O918   2.392       .  S
Zr908       O916   2.355       .  S
O909        H925   0.990       .  S
O910        H934   0.990       .  S
Zr911       O914   2.382       .  S
Zr911       O916   2.396       .  S
Zr911       O917   2.389       .  S
Zr912       O913   2.382       .  S
Zr912       O915   2.392       .  S
Zr912       O918   2.386       .  S
O913        H921   0.950       .  S
O916        H920   0.959       .  S
O917        H922   0.965       .  S
O935       Zr947   2.493       .  S
O935        C937   1.294       .  A
O936       Zr973   2.376       .  S
O936        C937   1.275       .  A
C937       C1198   1.473       .  S
O938       Zr950   2.411       .  S
O938        C940   1.280       .  A
O939       Zr974   2.427       .  S
O939        C940   1.288       .  A
C940       C1141   1.464       .  S
O941       Zr950   2.379       .  S
O941        C943   1.279       .  A
O942       Zr973   2.461       .  S
O942        C943   1.291       .  A
C943       C1225   1.475       .  S
O944       Zr947   2.307       .  S
O944        C946   1.262       .  A
O945       Zr974   2.679       .  S
O945        C946   1.342       .  A
C946       C1162   1.538       .  S
Zr947       O948   2.433       .  S
Zr947       O949   2.436       .  S
Zr947       O953   2.330       .  S
Zr947       O954   2.423       .  S
Zr947       O977   2.407       .  S
Zr947       O979   2.308       .  S
O948        H991   0.990       .  S
O949        H990   0.990       .  S
O949        H994   0.990       .  S
Zr950       O951   2.414       .  S
Zr950       O952   2.427       .  S
Zr950       O954   2.336       .  S
Zr950       O953   2.384       .  S
Zr950       O978   2.334       .  S
Zr950       O980   2.339       .  S
O951        H992   0.990       .  S
O951        H995   0.990       .  S
O952        H985   0.990       .  S
O953       Zr973   2.355       .  S
O954       Zr974   2.402       .  S
O954        H981   0.964       .  S
O955       Zr967   2.538       .  S
O955        C957   1.309       .  A
O956       Zr974   2.407       .  S
O956        C957   1.281       .  A
C957       C1129   1.505       .  S
O958       Zr970   2.522       .  S
O958        C960   1.303       .  A
O959       Zr973   2.362       .  S
O959        C960   1.274       .  A
C960       C1134   1.481       .  S
O961       Zr970   2.377       .  S
O961        C963   1.275       .  A
O962       Zr974   2.645       .  S
O962        C963   1.336       .  A
C963       C1166   1.530       .  S
O964       Zr967   2.413       .  S
O964        C966   1.285       .  A
O965       Zr973   2.413       .  S
O965        C966   1.286       .  A
C966       C1137   1.447       .  S
Zr967       O968   2.437       .  S
Zr967       O969   2.434       .  S
Zr967       O975   2.315       .  S
Zr967       O976   2.421       .  S
Zr967       O979   2.395       .  S
Zr967       O977   2.348       .  S
O968        H988   0.990       .  S
O968        H993   0.990       .  S
O969        H989   0.990       .  S
Zr970       O971   2.434       .  S
Zr970       O972   2.438       .  S
Zr970       O976   2.346       .  S
Zr970       O975   2.428       .  S
Zr970       O980   2.397       .  S
Zr970       O978   2.333       .  S
O971        H987   0.990       .  S
O972        H986   0.990       .  S
O972        H996   0.990       .  S
Zr973       O976   2.390       .  S
Zr973       O978   2.367       .  S
Zr973       O979   2.381       .  S
Zr974       O975   2.413       .  S
Zr974       O977   2.403       .  S
Zr974       O980   2.400       .  S
O975        H983   0.964       .  S
O978        H982   0.963       .  S
O979        H984   0.965       .  S
O997      Zr2257   2.399       .  S
O997        C999   1.269       .  A
O998      Zr2283   2.515       .  S
O998        C999   1.296       .  A
C999       C1178   1.489       .  S
O1000     Zr1012   2.387       .  S
O1000      C1002   1.279       .  A
O1001     Zr1036   2.495       .  S
O1001      C1002   1.301       .  A
C1002      C1149   1.478       .  S
O1003     Zr1012   2.441       .  S
O1003      C2253   1.288   1_545  A
O1004     Zr2283   2.376       .  S
O1004      C1005   1.278       .  A
C1005      O2251   1.288       .  A
C1005      C1245   1.453       .  S
O1006     Zr1009   2.389       .  S
O1006      C1008   1.275       .  A
O1007     Zr1036   2.440       .  S
O1007      C1008   1.289       .  A
C1008      C1126   1.463       .  S
Zr1009     O2245   2.396       .  S
Zr1009     O1010   2.436       .  S
Zr1009     O1011   2.443       .  S
Zr1009     O1015   2.371       .  S
Zr1009     O1016   2.344       .  S
Zr1009     O1039   2.363       .  S
Zr1009     O1041   2.363       .  S
O1010      H2301   0.990       .  S
O1011      H3548   0.985   1_455  S
O1011      H1056   0.990   1_455  S
Zr1012     O1013   2.437       .  S
Zr1012     O1014   2.434       .  S
Zr1012     O1016   2.397       .  S
Zr1012     O1015   2.328       .  S
Zr1012     O1040   2.361       .  S
Zr1012     O1042   2.362       .  S
O1013      H1054   0.990       .  S
O1013      H1057   0.990       .  S
O1014      H1047   0.990       .  S
O1015     Zr1035   2.347       .  S
O1016     Zr1036   2.376       .  S
O1016      H1043   0.962       .  S
O1017     Zr1029   2.425       .  S
O1017      C1019   1.287       .  A
O1018     Zr1036   2.482       .  S
O1018      C1019   1.301       .  A
C1019      C1241   1.475       .  S
O1020     Zr1032   2.451       .  S
O1020      C1022   1.290       .  A
O1021     Zr1035   2.461       .  S
O1021      C1022   1.296       .  A
C1022      C1121   1.481       .  S
O1023     Zr1032   2.528       .  S
O1023      C1025   1.307       .  A
O1024     Zr1036   2.437       .  S
O1024      C1025   1.286       .  A
C1025      C1230   1.512       .  S
O1026     Zr3525   2.524       .  S
O1026      C3524   1.302       .  A
O1027     Zr1035   2.372       .  S
O1027      C1028   1.281       .  A
C1028      O3522   1.306       .  A
C1028      C3654   1.509   1_455  S
Zr1029     O3522   2.540       .  S
Zr1029     O1030   2.436       .  S
Zr1029     O3527   2.434   1_455  S
Zr1029     O1037   2.430       .  S
Zr1029     O1038   2.335       .  S
Zr1029     O1041   2.364       .  S
Zr1029     O1039   2.405       .  S
O1030      H1050   0.990       .  S
O1030      H3551   0.990       .  S
O1031     Zr3525   2.433       .  S
O1031      H1051   0.990       .  S
Zr1032     O1033   2.432       .  S
Zr1032     O1034   2.430       .  S
Zr1032     O1038   2.384       .  S
Zr1032     O1037   2.329       .  S
Zr1032     O1042   2.351       .  S
Zr1032     O1040   2.376       .  S
O1033      H1049   0.990       .  S
O1034      H1048   0.990       .  S
O1034      H1058   0.990       .  S
Zr1035     O2246   2.520   1_545  S
Zr1035     O2252   2.389       .  S
Zr1035     O1038   2.361       .  S
Zr1035     O1040   2.405       .  S
Zr1035     O1041   2.391       .  S
Zr1036     O1037   2.406       .  S
Zr1036     O1039   2.406       .  S
Zr1036     O1042   2.392       .  S
O1037      H1045   0.962       .  S
O1040      H1044   0.965       .  S
O1041      H1046   0.965       .  S
H1052      O3507   0.988       .  S
H1053      O2258   0.990       .  S
H1055      O3526   0.990       .  S
O1059     Zr2319   2.411       .  S
O1059      C1061   1.276       .  A
O1060     Zr2345   2.502       .  S
O1060      C1061   1.296       .  A
C1061      C1154   1.503       .  S
O1062     Zr1074   2.361       .  S
O1062      C1064   1.274       .  A
O1063     Zr1098   2.526       .  S
O1063      C1064   1.308       .  A
C1064      C1133   1.486       .  S
O1065     Zr2322   2.436       .  S
O1065      C1067   1.286       .  A
O1066     Zr2345   2.366       .  S
O1066      C1067   1.278       .  A
C1067      C1214   1.432       .  S
O1068     Zr1071   2.442       .  S
O1068      C1070   1.284       .  A
O1069     Zr1098   2.435       .  S
O1069      C1070   1.288       .  A
C1070      C1122   1.473       .  S
Zr1071     O2307   2.403   1_545  S
Zr1071     O1072   2.427   1_545  S
Zr1071     O1073   2.428   1_455  S
Zr1071     O1077   2.368       .  S
Zr1071     O1078   2.350       .  S
Zr1071     O1101   2.335       .  S
Zr1071     O1103   2.406       .  S
O1072      H2363   0.991       .  S
O1073      H3610   0.988       .  S
O1073      H1118   0.990       .  S
Zr1074     O2313   2.442       .  S
Zr1074     O1075   2.436       .  S
Zr1074     O1076   2.436       .  S
Zr1074     O1078   2.383       .  S
Zr1074     O1077   2.309       .  S
Zr1074     O1102   2.346       .  S
Zr1074     O1104   2.372       .  S
O1075      H1116   0.990       .  S
O1075      H1119   0.990       .  S
O1076      H1109   0.990       .  S
O1077     Zr1097   2.354       .  S
O1078     Zr1098   2.378       .  S
O1078      H1105   0.963       .  S
O1079     Zr1091   2.366   1_655  S
O1079      C1081   1.264       .  A
O1080     Zr1098   2.582       .  S
O1080      C1081   1.316   1_455  A
C1081      C3626   1.516       .  S
O1082     Zr1094   2.391       .  S
O1082      C1084   1.279       .  A
O1083     Zr1097   2.454       .  S
O1083      C1084   1.292       .  A
C1084      C1125   1.463       .  S
O1085     Zr1094   2.426       .  S
O1085      C1087   1.288       .  A
O1086     Zr1098   2.343       .  S
O1086      C1087   1.271       .  A
C1087      C1210   1.421       .  S
O1088     Zr3587   2.466       .  S
O1088      C1090   1.290       .  A
O1089     Zr1097   2.424       .  S
O1089      C3586   1.288   1_455  A
C1090      O3585   1.289       .  A
C1090      C1181   1.485       .  S
Zr1091     O3584   2.470   1_455  S
Zr1091     O1092   2.438   1_455  S
Zr1091     O3589   2.436   1_455  S
Zr1091     O1099   2.403       .  S
Zr1091     O1100   2.329       .  S
Zr1091     O1103   2.360       .  S
Zr1091     O1101   2.405       .  S
O1092      H1112   0.990       .  S
O1092      H3613   0.990       .  S
O1093     Zr3587   2.436       .  S
O1093      H1113   0.990       .  S
Zr1094     O1095   2.434       .  S
Zr1094     O1096   2.436       .  S
Zr1094     O1100   2.373       .  S
Zr1094     O1099   2.340       .  S
Zr1094     O1104   2.340       .  S
Zr1094     O1102   2.345       .  S
O1095      H1111   0.990       .  S
O1096      H1110   0.990       .  S
O1096      H1120   0.990       .  S
Zr1097     O2308   2.512   1_545  S
Zr1097     O2314   2.361       .  S
Zr1097     O1100   2.361       .  S
Zr1097     O1102   2.396       .  S
Zr1097     O1103   2.391       .  S
Zr1098     O1099   2.408       .  S
Zr1098     O1101   2.383       .  S
Zr1098     O1104   2.410       .  S
O1099      H1107   0.963       .  S
O1102      H1106   0.965       .  S
O1103      H3604   0.963       .  S
H1108      O3599   0.962       .  S
H1114      O3569   0.990       .  S
H1115      O2320   0.990       .  S
H1117      O3588   0.990       .  S
C1121      C1122   1.346       .  D
C1121      H1123   1.087       .  S
C1122      H1124   1.084       .  S
C1125      H1127   1.086       .  S
C1126      H1128   1.086       .  S
C1129      C1130   1.383       .  D
C1129      H1131   1.085       .  S
C1130      C3577   1.518       .  S
C1130      H1132   1.085       .  S
C1133      C1134   1.371       .  D
C1133      H1135   1.087       .  S
C1134      H1136   1.086       .  S
C1137      C1138   1.344       .  D
C1137      H1139   1.087       .  S
C1138      H1140   1.087       .  S
C1141      C1142   1.357       .  D
C1141      H1143   1.087       .  S
C1142      H1144   1.087       .  S
C1145      C1146   1.366       .  D
C1145      H1147   1.085       .  S
C1146      H1148   1.086       .  S
C1149      C1150   1.362       .  D
C1149      H1151   1.084       .  S
C1150      H1152   1.086       .  S
C1153      C1154   1.361       .  D
C1153      H1155   1.086       .  S
C1154      H1156   1.083       .  S
C1157      C1158   1.360       .  D
C1157      H1159   1.087       .  S
C1158      C3524   1.511       .  S
C1158      H3656   1.085       .  S
H1160      C3654   1.085       .  S
C1161      C1162   1.416       .  D
C1161      H1163   1.085       .  S
C1162      H1164   1.085       .  S
C1165      C2081   1.534   1_545  S
C1165      C1166   1.408       .  D
C1165      H2415   1.085       .  S
C1166      H1168   1.085       .  S
H1167      C2413   1.085       .  S
C1169      C1170   1.358       .  D
C1169      H1171   1.086       .  S
C1170      H1172   1.086       .  S
C1173      C1174   1.358       .  D
C1173      H1175   1.087       .  S
C1174      H1176   1.084       .  S
C1177      C1178   1.364       .  D
C1177      H1179   1.086       .  S
C1178      H1180   1.081       .  S
C1181      C1182   1.346       .  D
C1181      H1183   1.086       .  S
C1182      H2432   1.088       .  S
H1184      C2430   1.086       .  S
C1185      C1186   1.343       .  D
C1185      H1187   1.087       .  S
C1186      H1188   1.087       .  S
C1189      C1190   1.366       .  D
C1189      H1191   1.085       .  S
C1190      H1192   1.085       .  S
C1193      C1194   1.371   1_556  D
C1193      H1195   1.084       .  S
C1194      H1196   1.086       .  S
C1197      C1198   1.345       .  D
C1197      H1199   1.086       .  S
C1198      H1200   1.088       .  S
C1201      C1202   1.367       .  D
C1201      H1203   1.085       .  S
C1202      H1204   1.085       .  S
C1205      C1206   1.355       .  D
C1205      H1207   1.086       .  S
C1206      H1208   1.087       .  S
C1209      C1210   1.334       .  D
C1209      H1211   1.089       .  S
C1210      H1212   1.088       .  S
C1213      C1214   1.329       .  D
C1213      H1215   1.081       .  S
C1214      H1216   1.086       .  S
C1217      C1218   1.355       .  D
C1217      H1219   1.087       .  S
C1218      H1220   1.086       .  S
C1221      C1222   1.355       .  D
C1221      H1223   1.084       .  S
C1222      H1224   1.085       .  S
C1225      C1226   1.350       .  D
C1225      H1227   1.087       .  S
C1226      H1228   1.087       .  S
C1229      C1230   1.378       .  D
C1229      H1231   1.085       .  S
C1230      H1232   1.088       .  S
C1233      C1234   1.342       .  D
C1233      H1235   1.087       .  S
C1234      H1236   1.087       .  S
C1237      C1238   1.336       .  D
C1237      H1239   1.089       .  S
C1238      H1240   1.086       .  S
C1241      C1242   1.364       .  D
C1241      H1243   1.086       .  S
C1242      H1244   1.086       .  S
C1245      C1246   1.337       .  D
C1245      H1247   1.088       .  S
C1246      H1248   1.087       .  S
O1249     Zr1261   2.428       .  S
O1249      C1251   1.289       .  A
O1250     Zr1287   2.401       .  S
O1250      C1251   1.280       .  A
C1251      C1870   1.465       .  S
O1252     Zr1264   2.465       .  S
O1252      C1254   1.292       .  A
O1253     Zr1288   2.457       .  S
O1253      C1254   1.292       .  A
C1254      C1841   1.488       .  S
O1255     Zr1264   2.458       .  S
O1255      C1257   1.291       .  A
O1256     Zr1287   2.408       .  S
O1256      C1257   1.286       .  A
C1257      C1857   1.472       .  S
O1258     Zr1261   2.435       .  S
O1258      C1260   1.289       .  A
O1259     Zr1288   2.405       .  S
O1259      C1260   1.280       .  A
C1260      C1862   1.465       .  S
Zr1261     O1262   2.434       .  S
Zr1261     O1263   2.436       .  S
Zr1261     O1267   2.370       .  S
Zr1261     O1268   2.360       .  S
Zr1261     O1291   2.375       .  S
Zr1261     O1293   2.371       .  S
O1262      H1305   0.990       .  S
O1263      H1304   0.990       .  S
O1263      H1308   0.990       .  S
Zr1264     O1265   2.435       .  S
Zr1264     O1266   2.435       .  S
Zr1264     O1268   2.376       .  S
Zr1264     O1267   2.372       .  S
Zr1264     O1292   2.372       .  S
Zr1264     O1294   2.367       .  S
O1265      H1306   0.990       .  S
O1265      H1309   0.990       .  S
O1266      H1299   0.990       .  S
O1267     Zr1287   2.385       .  S
O1268     Zr1288   2.395       .  S
O1268      H1295   0.966       .  S
O1269     Zr1281   2.399       .  S
O1269      C1271   1.278       .  A
O1270     Zr1288   2.476       .  S
O1270      C1271   1.296       .  A
C1271      C1866   1.481       .  S
O1272     Zr1284   2.462       .  S
O1272      C1274   1.290       .  A
O1273     Zr1287   2.430       .  S
O1273      C1274   1.282       .  A
C1274      C1846   1.479       .  S
O1275     Zr1284   2.466       .  S
O1275      C1277   1.293       .  A
O1276     Zr1288   2.396       .  S
O1276      C1277   1.279       .  A
C1277      C1850   1.463       .  S
O1278     Zr1281   2.457       .  S
O1278      C1280   1.287       .  A
O1279     Zr1287   2.424       .  S
O1279      C1280   1.280       .  A
C1280      C1845   1.477       .  S
Zr1281     O1282   2.439       .  S
Zr1281     O1283   2.437       .  S
Zr1281     O1289   2.416       .  S
Zr1281     O1290   2.337       .  S
Zr1281     O1293   2.365       .  S
Zr1281     O1291   2.371       .  S
O1282      H1302   0.990       .  S
O1282      H1307   0.990       .  S
O1283      H1303   0.990       .  S
Zr1284     O1285   2.415       .  S
Zr1284     O1286   2.431       .  S
Zr1284     O1290   2.349       .  S
Zr1284     O1289   2.383       .  S
Zr1284     O1294   2.355       .  S
Zr1284     O1292   2.363       .  S
O1285      H1301   0.990       .  S
O1286      H1300   0.989       .  S
O1286      H1310   0.989       .  S
Zr1287     O1290   2.361       .  S
Zr1287     O1292   2.385       .  S
Zr1287     O1293   2.392       .  S
Zr1288     O1289   2.394       .  S
Zr1288     O1291   2.390       .  S
Zr1288     O1294   2.387       .  S
O1289      H1297   0.965       .  S
O1292      H1296   0.963       .  S
O1293      H1298   0.966       .  S
O1311     Zr1323   2.399       .  S
O1311      C1313   1.279       .  A
O1312     Zr1349   2.450       .  S
O1312      C1313   1.291       .  A
C1313      C1830   1.471       .  S
O1314     Zr1326   2.410       .  S
O1314      C1316   1.282       .  A
O1315     Zr1350   2.508       .  S
O1315      C1316   1.307       .  A
C1316      C1817   1.493       .  S
O1317     Zr1950   2.503   1_554  S
O1317      C1319   1.296       .  A
O1318     Zr1349   2.402       .  S
O1318      C1943   1.278       .  A
C1319      O1942   1.277       .  A
C1319      C2450   1.487       .  S
O1320     Zr1323   2.379       .  S
O1320      C1322   1.269       .  A
O1321     Zr1350   2.398       .  S
O1321      C1322   1.271       .  A
C1322      C1833   1.426       .  S
Zr1323     O1324   2.434       .  S
Zr1323     O1325   2.436       .  S
Zr1323     O1329   2.371       .  S
Zr1323     O1330   2.382       .  S
Zr1323     O1353   2.375       .  S
Zr1323     O1355   2.368       .  S
O1324      H1367   0.990       .  S
O1325      H1366   0.990       .  S
O1325      H1370   0.990       .  S
Zr1326     O1941   2.501       .  S
Zr1326     O1327   2.434       .  S
Zr1326     O1328   2.429       .  S
Zr1326     O1330   2.369       .  S
Zr1326     O1329   2.368       .  S
Zr1326     O1354   2.305       .  S
Zr1326     O1356   2.424       .  S
O1327      H1368   0.990       .  S
O1327      H1995   0.990       .  S
O1328      H1985   0.990       .  S
O1329     Zr1349   2.374       .  S
O1330     Zr1350   2.405       .  S
O1330      H1357   0.964       .  S
O1331     Zr1343   2.439       .  S
O1331      C1333   1.287       .  A
O1332     Zr1350   2.478       .  S
O1332      C1333   1.299       .  A
C1333      C1842   1.495       .  S
O1334     Zr1346   2.504       .  S
O1334      C1336   1.298       .  A
O1335     Zr1349   2.407       .  S
O1335      C1336   1.279       .  A
C1336      C1825   1.487       .  S
O1337     Zr1346   2.469       .  S
O1337      C1339   1.291       .  A
O1338     Zr1350   2.429       .  S
O1338      C1339   1.290       .  A
C1339      C1821   1.482       .  S
O1340     Zr1343   2.397       .  S
O1340      C1342   1.278       .  A
O1341     Zr1349   2.394       .  S
O1341      C1342   1.284       .  A
C1342      C1837   1.446       .  S
Zr1343     O1344   2.437       .  S
Zr1343     O1345   2.436       .  S
Zr1343     O1351   2.365       .  S
Zr1343     O1352   2.378       .  S
Zr1343     O1355   2.384       .  S
Zr1343     O1353   2.342       .  S
O1344      H1364   0.990       .  S
O1344      H1369   0.990       .  S
O1345      H1365   0.990       .  S
Zr1346     O1347   2.434       .  S
Zr1346     O1348   2.436       .  S
Zr1346     O1352   2.377       .  S
Zr1346     O1351   2.355       .  S
Zr1346     O1356   2.409       .  S
Zr1346     O1354   2.322       .  S
O1347      H1363   0.990       .  S
O1348      H1362   0.990       .  S
O1348      H1372   0.990       .  S
Zr1349     O1352   2.390       .  S
Zr1349     O1354   2.380       .  S
Zr1349     O1355   2.379       .  S
Zr1350     O1351   2.382       .  S
Zr1350     O1353   2.382       .  S
Zr1350     O1356   2.389       .  S
O1351      H1359   0.965       .  S
O1354      H1358   0.948       .  S
O1355      H1360   0.966       .  S
H1361      O1952   0.990       .  S
H1371      O1951   0.990       .  S
O1373     Zr3881   2.328       .  S
O1373      C1375   1.247   1_655  A
O1374     Zr4531   2.479   1_454  S
O1374      C1375   1.271       .  A
C1375      C1801   1.478       .  S
O1376     Zr1388   2.466       .  S
O1376      C1378   1.294       .  A
O1377     Zr1412   2.420       .  S
O1377      C1378   1.285       .  A
C1378      C1809   1.485       .  S
O1379     Zr4508   2.481       .  S
O1379      C1381   1.295   1_655  A
O1380     Zr3907   2.370       .  S
O1380      C1381   1.277   1_655  A
C1381      C1829   1.474       .  S
O1382     Zr1385   2.388       .  S
O1382      C1384   1.270       .  A
O1383     Zr1412   2.426       .  S
O1383      C1384   1.281       .  A
C1384      C1797   1.461       .  S
Zr1385     O3869   2.324       .  S
Zr1385     O1386   2.436       .  S
Zr1385     O1387   2.436       .  S
Zr1385     O1391   2.381       .  S
Zr1385     O1392   2.370       .  S
Zr1385     O1415   2.370       .  S
Zr1385     O1417   2.409       .  S
O1386      H3925   0.990       .  S
O1387      H1428   0.988       .  S
O1387      H1432   0.990       .  S
Zr1388     O4499   2.475   1_554  S
Zr1388     O1389   2.436       .  S
Zr1388     O2014   2.435   1_554  S
Zr1388     O1392   2.387       .  S
Zr1388     O1391   2.361       .  S
Zr1388     O2040   2.394   1_554  S
Zr1388     O2042   2.385   1_554  S
O1389      H1430   0.990       .  S
O1389      H1433   0.990       .  S
O1390     Zr2012   2.435       .  S
O1390      H1423   0.990       .  S
O1391     Zr2035   2.402   1_554  S
O1392     Zr1412   2.386       .  S
O1392      H1419   0.966       .  S
O1393     Zr2029   2.513       .  S
O1393      C1395   1.298       .  A
O1394     Zr1412   2.404       .  S
O1394      C1395   1.279   1_554  A
C1395      C2437   1.490       .  S
O1396     Zr1408   2.389       .  S
O1396      C1398   1.276       .  A
O1397     Zr1411   2.475       .  S
O1397      C1398   1.295       .  A
C1398      C1793   1.482       .  S
O1399     Zr1408   2.510       .  S
O1399      C1401   1.296       .  A
O1400     Zr2036   2.390       .  S
O1400      C1401   1.275       .  A
C1401      C1814   1.486       .  S
O1402      C1404   1.297       .  A
O1403     Zr1411   2.395       .  S
C1404      C1806   1.480       .  S
Zr1405     O2017   2.512       .  S
Zr1405     O1406   2.438   1_565  S
Zr1405     O1413   2.344       .  S
Zr1405     O1414   2.397       .  S
Zr1405     O2041   2.366       .  S
Zr1405     O2039   2.390       .  S
O1406      H1426   0.990       .  S
O1407      H1427   0.990       .  S
Zr1408     O1409   2.436       .  S
Zr1408     O1410   2.434       .  S
Zr1408     O1414   2.420       .  S
Zr1408     O1413   2.310       .  S
Zr1408     O1418   2.354       .  S
Zr1408     O1416   2.382       .  S
O1409      H1425   0.991       .  S
O1410      H1424   0.990       .  S
O1410      H1434   0.990       .  S
Zr1411     O4494   2.503       .  S
Zr1411     O3876   2.362       .  S
Zr1411     O2015   2.404       .  S
Zr1411     O1414   2.386       .  S
Zr1411     O1416   2.412       .  S
Zr1411     O2041   2.425       .  S
Zr1412     O2024   2.391   1_554  S
Zr1412     O2037   2.400   1_554  S
Zr1412     O1415   2.394       .  S
Zr1412     O2042   2.389   1_554  S
O1413     Zr2036   2.398       .  S
O1413      H1421   0.950       .  S
O1415     Zr2029   2.395   1_554  S
O1416     Zr2012   2.394       .  S
O1416      H1420   0.966       .  S
O1417     Zr2029   2.362   1_554  S
O1417     Zr2035   2.427   1_554  S
O1417      H1422   0.968       .  S
O1418     Zr2012   2.385       .  S
O1418     Zr2036   2.387       .  S
H1429      O3882   0.990       .  S
O1435     Zr3943   2.378   1_455  S
O1435      C1437   1.275       .  A
O1436     Zr3969   2.480   1_455  S
O1436      C1437   1.297       .  A
C1437      C1777   1.477       .  S
O1438     Zr1450   2.353       .  S
O1438      C1440   1.269       .  A
O1439     Zr1474   2.653       .  S
O1439      C1440   1.338       .  A
C1440      C1785   1.532       .  S
O1441     Zr3946   2.458       .  S
O1441      C1443   1.288   1_655  A
O1442     Zr3969   2.367   1_455  S
O1442      C1443   1.277       .  A
C1443      C1861   1.449       .  S
O1444     Zr1447   2.411       .  S
O1444      C1446   1.280       .  A
O1445     Zr1474   2.463       .  S
O1445      C1446   1.295       .  A
C1446      C1794   1.479       .  S
Zr1447     O3931   2.373       .  S
Zr1447     O1448   2.437       .  S
Zr1447     O1449   2.419       .  S
Zr1447     O1453   2.366       .  S
Zr1447     O1454   2.362       .  S
Zr1447     O1477   2.326       .  S
Zr1447     O1479   2.384       .  S
O1448      H3987   0.991       .  S
O1449      H1490   0.984   1_565  S
O1449      H1494   0.990       .  S
Zr1450     O3937   2.458       .  S
Zr1450     O1451   2.437       .  S
Zr1450     O1452   2.435       .  S
Zr1450     O1454   2.393       .  S
Zr1450     O1453   2.323       .  S
Zr1450     O1478   2.341       .  S
Zr1450     O1480   2.390       .  S
O1451      H1492   0.990       .  S
O1451      H1495   0.990       .  S
O1452      H1485   0.990       .  S
O1453     Zr1473   2.367       .  S
O1454     Zr1474   2.398       .  S
O1454      H1481   0.965       .  S
O1455     Zr1467   2.341   1_545  S
O1455      C1457   1.266   1_545  A
O1456     Zr1474   2.647       .  S
O1456      C1457   1.336       .  A
O1458     Zr1470   2.385       .  S
O1458      C1460   1.276       .  A
O1459     Zr1473   2.470       .  S
O1459      C1460   1.294       .  A
C1460      C1798   1.470       .  S
O1461     Zr1470   2.459       .  S
O1461      C1463   1.291       .  A
O1462     Zr1474   2.400       .  S
O1462      C1463   1.286       .  A
C1463      C1858   1.471       .  S
O1464      C1466   1.294       .  A
O1465     Zr1473   2.379       .  S
C1466      C1781   1.486       .  S
Zr1467     O1468   2.436       .  S
Zr1467     O1475   2.403       .  S
Zr1467     O1476   2.316       .  S
Zr1467     O1479   2.355       .  S
Zr1467     O1477   2.412       .  S
O1468      H1488   0.990       .  S
O1469      H1489   0.990       .  S
Zr1470     O1471   2.434       .  S
Zr1470     O1472   2.435       .  S
Zr1470     O1476   2.382       .  S
Zr1470     O1475   2.358       .  S
Zr1470     O1480   2.328       .  S
Zr1470     O1478   2.397       .  S
O1471      H1487   0.990       .  S
O1472      H1486   0.990       .  S
O1472      H1496   0.990       .  S
Zr1473     O3932   2.475       .  S
Zr1473     O3938   2.366       .  S
Zr1473     O1476   2.370       .  S
Zr1473     O1478   2.382       .  S
Zr1473     O1479   2.374       .  S
Zr1474     O1475   2.412       .  S
Zr1474     O1477   2.388       .  S
Zr1474     O1480   2.385       .  S
O1475      H1483   0.965       .  S
O1478      H1482   0.966       .  S
O1479      H1484   0.964       .  S
H1491      O3944   0.991       .  S
O1497     Zr1509   2.616       .  S
O1497      C1499   1.319       .  A
O1498     Zr1535   2.320       .  S
O1498      C1499   1.256       .  A
C1499      C1853   1.516       .  S
O1500     Zr2136   2.395       .  S
O1500      C1502   1.279       .  A
O1501     Zr2160   2.405       .  S
O1501      C1502   1.279       .  A
C1502      C1762   1.458       .  S
O1503     Zr2136   2.383       .  S
O1503      C2129   1.259       .  A
O1504     Zr1535   2.543       .  S
O1504      C1505   1.303       .  A
C1505      O2127   1.258   1_554  A
C1505      C2442   1.493       .  S
O1506     Zr1509   2.482       .  S
O1506      C1508   1.297       .  A
O1507     Zr1536   2.414       .  S
O1507      C1508   1.286       .  A
C1508      C1810   1.481       .  S
Zr1509     O1510   2.430       .  S
Zr1509     O1511   2.435       .  S
Zr1509     O1515   2.340       .  S
Zr1509     O1516   2.415       .  S
Zr1509     O1539   2.425       .  S
Zr1509     O1541   2.340       .  S
O1510      H1553   0.990       .  S
O1511      H1552   0.990       .  S
O1511      H1556   0.990       .  S
Zr1512     O2124   2.393       .  S
Zr1512     O2127   2.381       .  S
Zr1512     O2137   2.443       .  S
Zr1512     O2138   2.436       .  S
Zr1512     O1516   2.356   1_556  S
Zr1512     O1515   2.388   1_556  S
Zr1512     O1540   2.375   1_556  S
Zr1512     O1542   2.360   1_556  S
O1513     Zr2136   2.443       .  S
O1513      H1554   0.989       .  S
O1513      H1557   0.989       .  S
O1514     Zr2136   2.436       .  S
O1514      H1547   0.990       .  S
O1515     Zr1535   2.381       .  S
O1516     Zr1536   2.389       .  S
O1516      H1543   0.965       .  S
O1517     Zr1529   2.495       .  S
O1517      C1519   1.292       .  A
O1518     Zr1536   2.401       .  S
O1518      C1519   1.276       .  A
C1519      C1769   1.488       .  S
O1520     Zr1532   2.503       .  S
O1520      C1522   1.294       .  A
O1521     Zr1535   2.366       .  S
O1521      C1522   1.267       .  A
C1522      C1774   1.467       .  S
O1523     Zr1532   2.503       .  S
O1523      C1525   1.298       .  A
O1524     Zr1536   2.415       .  S
O1524      C1525   1.280       .  A
C1525      C1770   1.487       .  S
O1526     Zr1529   2.384       .  S
O1526      C1528   1.278       .  A
O1527     Zr1535   2.460       .  S
O1527      C1528   1.293       .  A
C1528      C1766   1.473       .  S
Zr1529     O1530   2.436       .  S
Zr1529     O1531   2.434       .  S
Zr1529     O1537   2.297       .  S
Zr1529     O1538   2.417       .  S
Zr1529     O1541   2.369       .  S
Zr1529     O1539   2.365       .  S
O1530      H1550   0.990       .  S
O1530      H1555   0.990       .  S
O1531      H1551   0.990       .  S
Zr1532     O1533   2.433       .  S
Zr1532     O1534   2.435   1_554  S
Zr1532     O1538   2.402       .  S
Zr1532     O1537   2.345       .  S
Zr1532     O1542   2.394       .  S
Zr1532     O1540   2.358       .  S
O1533      H1549   0.990       .  S
O1534      H2172   0.990       .  S
O1534      H1558   0.990       .  S
Zr1535     O1538   2.381       .  S
Zr1535     O1540   2.395       .  S
Zr1535     O1541   2.387       .  S
Zr1536     O2125   2.405   1_554  S
Zr1536     O1537   2.382       .  S
Zr1536     O1539   2.393       .  S
Zr1536     O1542   2.386       .  S
O1537      H1545   0.950       .  S
O1540      H1544   0.959       .  S
O1541      H1546   0.965       .  S
H1548      O2158   0.990       .  S
O1559     Zr1571   2.489       .  S
O1559      C1561   1.293       .  A
O1560     Zr1597   2.380       .  S
O1560      C1561   1.275       .  A
C1561      C1822   1.473       .  S
O1562     Zr1574   2.412       .  S
O1562      C1564   1.280       .  A
O1563     Zr1598   2.428       .  S
O1563      C1564   1.288       .  A
C1564      C1765   1.465       .  S
O1565     Zr1574   2.382       .  S
O1565      C1567   1.280       .  A
O1566     Zr1597   2.461       .  S
O1566      C1567   1.291       .  A
C1567      C1849   1.475       .  S
O1568     Zr1571   2.304       .  S
O1568      C1570   1.261       .  A
O1569     Zr1598   2.680       .  S
O1569      C1570   1.343       .  A
C1570      C1786   1.539       .  S
Zr1571     O1572   2.433       .  S
Zr1571     O1573   2.436       .  S
Zr1571     O1577   2.330       .  S
Zr1571     O1578   2.422       .  S
Zr1571     O1601   2.405       .  S
Zr1571     O1603   2.308       .  S
O1572      H1615   0.990       .  S
O1573      H1614   0.990       .  S
O1573      H1618   0.990       .  S
Zr1574     O1575   2.413       .  S
Zr1574     O1576   2.430       .  S
Zr1574     O1578   2.338       .  S
Zr1574     O1577   2.386       .  S
Zr1574     O1602   2.332       .  S
Zr1574     O1604   2.340       .  S
O1575      H1616   0.990       .  S
O1575      H1619   0.990       .  S
O1576      H1609   0.990       .  S
O1577     Zr1597   2.355       .  S
O1578     Zr1598   2.402       .  S
O1578      H1605   0.964       .  S
O1579     Zr1591   2.531       .  S
O1579      C1581   1.308       .  A
O1580     Zr1598   2.412       .  S
O1580      C1581   1.282       .  A
C1581      C1753   1.505       .  S
O1582     Zr1594   2.521       .  S
O1582      C1584   1.302       .  A
O1583     Zr1597   2.354       .  S
O1583      C1584   1.273       .  A
C1584      C1758   1.477       .  S
O1585     Zr1594   2.383       .  S
O1585      C1587   1.276       .  A
O1586     Zr1598   2.646       .  S
O1586      C1587   1.337       .  A
C1587      C1790   1.532       .  S
O1588     Zr1591   2.415       .  S
O1588      C1590   1.286       .  A
O1589     Zr1597   2.410       .  S
O1589      C1590   1.285       .  A
C1590      C1761   1.447       .  S
Zr1591     O1592   2.437       .  S
Zr1591     O1593   2.434       .  S
Zr1591     O1599   2.319       .  S
Zr1591     O1600   2.417       .  S
Zr1591     O1603   2.393       .  S
Zr1591     O1601   2.348       .  S
O1592      H1612   0.990       .  S
O1592      H1617   0.990       .  S
O1593      H1613   0.990       .  S
Zr1594     O1595   2.434       .  S
Zr1594     O1596   2.438       .  S
Zr1594     O1600   2.347       .  S
Zr1594     O1599   2.429       .  S
Zr1594     O1604   2.396       .  S
Zr1594     O1602   2.336       .  S
O1595      H1611   0.990       .  S
O1596      H1610   0.990       .  S
O1596      H1620   0.990       .  S
Zr1597     O1600   2.391       .  S
Zr1597     O1602   2.369       .  S
Zr1597     O1603   2.378       .  S
Zr1598     O1599   2.414       .  S
Zr1598     O1601   2.402       .  S
Zr1598     O1604   2.400       .  S
O1599      H1607   0.964       .  S
O1602      H1606   0.963       .  S
O1603      H1608   0.965       .  S
O1621      C1623   1.270   1_545  A
O1622      C1623   1.295       .  A
C1623      C1802   1.484       .  S
O1624     Zr1636   2.389       .  S
O1624      C1626   1.278       .  A
O1625     Zr1660   2.494       .  S
O1625      C1626   1.301       .  A
C1626      C1773   1.479       .  S
O1627     Zr1636   2.444       .  S
O1628      C1629   1.278   1_545  A
C1629      C1869   1.453       .  S
O1630     Zr1633   2.379       .  S
O1630      C1632   1.274       .  A
O1631     Zr1660   2.443       .  S
O1631      C1632   1.290       .  A
C1632      C1750   1.462   1_554  S
Zr1633     O1634   2.438       .  S
Zr1633     O1635   2.443       .  S
Zr1633     O1639   2.367       .  S
Zr1633     O1640   2.353       .  S
Zr1633     O1663   2.370       .  S
Zr1633     O1665   2.355       .  S
O1635      H4172   0.988   1_455  S
O1635      H1680   0.990   1_455  S
Zr1636     O1637   2.437       .  S
Zr1636     O1638   2.435       .  S
Zr1636     O1640   2.397       .  S
Zr1636     O1639   2.334       .  S
Zr1636     O1664   2.360       .  S
Zr1636     O1666   2.361       .  S
O1637      H1678   0.990       .  S
O1637      H1681   0.990       .  S
O1638      H1671   0.990       .  S
O1639     Zr1659   2.338       .  S
O1640     Zr1660   2.376       .  S
O1640      H1667   0.963       .  S
O1641     Zr1653   2.426       .  S
O1641      C1643   1.286       .  A
O1642     Zr1660   2.474       .  S
O1642      C1643   1.298       .  A
C1643      C1865   1.474       .  S
O1644     Zr1656   2.501       .  S
O1644      C1646   1.301       .  A
O1645     Zr1659   2.410       .  S
O1645      C1646   1.284       .  A
C1646      C1745   1.479       .  S
O1647     Zr1656   2.549       .  S
O1647      C1649   1.312       .  A
O1648     Zr1660   2.427       .  S
O1648      C1649   1.285       .  A
C1649      C1854   1.514       .  S
O1650     Zr4149   2.513       .  S
O1650      C4148   1.300       .  A
O1651     Zr1659   2.381       .  S
O1651      C1652   1.282       .  A
C1652      O4146   1.299       .  A
C1652      C4278   1.507   1_455  S
Zr1653     O4146   2.510       .  S
Zr1653     O1654   2.437       .  S
Zr1653     O4151   2.433   1_455  S
Zr1653     O1661   2.419       .  S
Zr1653     O1662   2.344       .  S
Zr1653     O1665   2.373       .  S
Zr1653     O1663   2.399       .  S
O1654      H1674   0.990       .  S
O1654      H4175   0.990       .  S
O1655     Zr4149   2.433       .  S
O1655      H1675   0.990       .  S
Zr1656     O1657   2.433       .  S
Zr1656     O1658   2.431       .  S
Zr1656     O1662   2.378       .  S
Zr1656     O1661   2.335       .  S
Zr1656     O1666   2.365       .  S
Zr1656     O1664   2.376       .  S
O1657      H1673   0.990       .  S
O1658      H1672   0.990       .  S
O1658      H1682   0.990       .  S
Zr1659     O1662   2.374       .  S
Zr1659     O1664   2.400       .  S
Zr1659     O1665   2.382       .  S
Zr1660     O1661   2.410       .  S
Zr1660     O1663   2.402       .  S
Zr1660     O1666   2.394       .  S
O1661      H1669   0.963       .  S
O1664      H1668   0.965       .  S
O1665      H1670   0.965       .  S
H1676      O4131   0.988       .  S
H1679      O4150   0.990       .  S
O1683      C1685   1.277       .  A
O1684      C1685   1.298       .  A
C1685      C1778   1.500       .  S
O1686     Zr1698   2.352       .  S
O1686      C1688   1.273       .  A
O1687     Zr1722   2.528       .  S
O1687      C1688   1.308       .  A
C1688      C1757   1.482       .  S
O1689      C1691   1.287   1_545  A
O1690      C1691   1.274   1_545  A
C1691      C1838   1.432       .  S
O1692     Zr1695   2.486       .  S
O1692      C1694   1.295       .  A
O1693     Zr1722   2.409       .  S
O1693      C1694   1.281       .  A
C1694      C1746   1.483       .  S
Zr1695     O1696   2.429       .  S
Zr1695     O1697   2.429   1_455  S
Zr1695     O1701   2.376       .  S
Zr1695     O1702   2.347       .  S
Zr1695     O1725   2.338       .  S
Zr1695     O1727   2.422       .  S
O1697      H4234   0.989       .  S
O1697      H1742   0.990       .  S
Zr1698     O1699   2.436       .  S
Zr1698     O1700   2.436       .  S
Zr1698     O1702   2.383       .  S
Zr1698     O1701   2.307       .  S
Zr1698     O1726   2.344       .  S
Zr1698     O1728   2.366       .  S
O1699      H1740   0.990       .  S
O1699      H1743   0.990       .  S
O1700      H1733   0.990       .  S
O1701     Zr1721   2.358       .  S
O1702     Zr1722   2.381       .  S
O1702      H1729   0.962       .  S
O1703     Zr1715   2.369   1_655  S
O1703      C1705   1.264       .  A
O1704     Zr1722   2.577       .  S
O1704      C1705   1.313   1_455  A
C1705      C4250   1.517       .  S
O1706     Zr1718   2.369       .  S
O1706      C1708   1.275       .  A
O1707     Zr1721   2.476       .  S
O1707      C1708   1.296       .  A
C1708      C1749   1.468       .  S
O1709     Zr1718   2.410       .  S
O1709      C1711   1.284       .  A
O1710     Zr1722   2.341       .  S
O1710      C1711   1.270       .  A
C1711      C1834   1.413       .  S
O1712     Zr4211   2.473       .  S
O1712      C1714   1.291       .  A
O1713     Zr1721   2.418       .  S
O1713      C4210   1.286   1_455  A
C1714      O4209   1.287       .  A
C1714      C1805   1.484       .  S
Zr1715     O4208   2.481   1_455  S
Zr1715     O1716   2.438   1_455  S
Zr1715     O4213   2.436   1_455  S
Zr1715     O1723   2.415       .  S
Zr1715     O1724   2.327       .  S
Zr1715     O1727   2.364       .  S
Zr1715     O1725   2.409       .  S
O1716      H1736   0.990       .  S
O1716      H4237   0.990       .  S
O1717     Zr4211   2.436       .  S
O1717      H1737   0.990       .  S
Zr1718     O1719   2.434       .  S
Zr1718     O1720   2.437       .  S
Zr1718     O1724   2.371       .  S
Zr1718     O1723   2.341       .  S
Zr1718     O1728   2.334       .  S
Zr1718     O1726   2.346       .  S
O1719      H1735   0.990       .  S
O1720      H1734   0.990       .  S
O1720      H1744   0.990       .  S
Zr1721     O1724   2.358       .  S
Zr1721     O1726   2.391       .  S
Zr1721     O1727   2.399       .  S
Zr1722     O1723   2.403       .  S
Zr1722     O1725   2.383       .  S
Zr1722     O1728   2.406       .  S
O1723      H1731   0.965       .  S
O1726      H1730   0.965       .  S
O1727      H4228   0.964       .  S
H1732      O4223   0.963       .  S
H1738      O4193   0.989       .  S
H1741      O4212   0.990       .  S
C1745      C1746   1.346       .  D
C1745      H1747   1.087       .  S
C1746      H1748   1.087       .  S
C1749      C2374   1.361       .  D
C1749      H1751   1.086       .  S
C1750      C2373   1.360       .  D
C1750      H1752   1.086       .  S
C1753      C1754   1.381       .  D
C1753      H1755   1.085       .  S
C1754      C4201   1.517       .  S
C1754      H1756   1.085       .  S
C1757      C1758   1.371       .  D
C1757      H1759   1.087       .  S
C1758      H1760   1.086       .  S
C1761      C1762   1.343       .  D
C1761      H1763   1.087       .  S
C1762      H1764   1.087       .  S
C1765      C1766   1.357       .  D
C1765      H1767   1.087       .  S
C1766      H1768   1.087       .  S
C1769      C1770   1.366       .  D
C1769      H1771   1.085       .  S
C1770      H1772   1.085       .  S
C1773      C1774   1.362       .  D
C1773      H1775   1.082       .  S
C1774      H1776   1.086       .  S
C1777      C1778   1.364       .  D
C1777      H1779   1.086       .  S
C1778      H1780   1.083       .  S
C1781      C1782   1.356       .  D
C1781      H1783   1.088       .  S
C1782      C4148   1.500       .  S
C1782      H4280   1.085       .  S
H1784      C4278   1.085       .  S
C1785      C1786   1.416       .  D
C1785      H1787   1.085       .  S
C1786      H1788   1.085       .  S
C1789      C1790   1.410       .  D
C1790      H1792   1.084       .  S
C1793      C1794   1.363       .  D
C1793      H1795   1.086       .  S
C1794      H1796   1.086       .  S
C1797      C1798   1.355       .  D
C1797      H1799   1.086       .  S
C1798      H1800   1.085       .  S
C1801      C1802   1.364       .  D
C1801      H1803   1.086       .  S
C1802      H1804   1.083       .  S
C1805      C1806   1.348       .  D
C1805      H1807   1.086       .  S
C1809      C1810   1.343       .  D
C1809      H1811   1.087       .  S
C1810      H1812   1.087       .  S
C1813      C2019   1.490       .  S
C1813      C1814   1.367       .  D
C1813      H1815   1.085       .  S
C1814      H1816   1.085       .  S
C1817      C1818   1.373       .  D
C1817      H1819   1.084       .  S
C1818      C2129   1.493       .  S
C1818      H1820   1.086       .  S
C1821      C1822   1.346       .  D
C1821      H1823   1.086       .  S
C1822      H1824   1.087       .  S
C1825      C1826   1.367       .  D
C1825      H1827   1.085       .  S
C1826      C1943   1.487       .  S
C1826      H1828   1.085       .  S
C1829      C1830   1.356       .  D
C1829      H1831   1.086       .  S
C1830      H1832   1.087       .  S
C1833      C1834   1.330       .  D
C1833      H1835   1.090       .  S
C1834      H1836   1.087       .  S
C1837      C1838   1.330       .  D
C1837      H1839   1.087       .  S
C1838      H1840   1.087       .  S
C1841      C1842   1.355       .  D
C1841      H1843   1.087       .  S
C1842      H1844   1.086       .  S
C1845      C1846   1.355       .  D
C1845      H1847   1.084       .  S
C1846      H1848   1.085       .  S
C1849      C1850   1.350       .  D
C1849      H1851   1.087       .  S
C1850      H1852   1.087       .  S
C1853      C1854   1.382       .  D
C1853      H1855   1.085       .  S
C1854      H1856   1.088       .  S
C1857      C1858   1.346       .  D
C1857      H1859   1.087       .  S
C1858      H1860   1.087       .  S
C1861      C1862   1.335       .  D
C1861      H1863   1.088       .  S
C1862      H1864   1.086       .  S
C1865      C1866   1.363       .  D
C1865      H1867   1.086       .  S
C1866      H1868   1.086       .  S
C1869      C1870   1.337       .  D
C1869      H1871   1.088       .  S
C1870      H1872   1.087       .  S
O1873     Zr1885   2.412       .  S
O1873      C1875   1.285       .  A
O1874     Zr1911   2.410       .  S
O1874      C1875   1.282       .  A
C1875      C2494   1.466       .  S
O1876     Zr1888   2.464       .  S
O1876      C1878   1.292       .  A
O1877     Zr1912   2.457       .  S
O1877      C1878   1.292       .  A
C1878      C2465   1.487       .  S
O1879     Zr1888   2.443       .  S
O1879      C1881   1.288       .  A
O1880     Zr1911   2.404       .  S
O1880      C1881   1.287       .  A
C1881      C2481   1.465       .  S
O1882     Zr1885   2.402       .  S
O1882      C1884   1.280       .  A
O1883     Zr1912   2.434       .  S
O1883      C1884   1.288       .  A
C1884      C2486   1.453       .  S
Zr1885     O1886   2.434       .  S
Zr1885     O1887   2.438       .  S
Zr1885     O1891   2.356       .  S
Zr1885     O1892   2.368       .  S
Zr1885     O1915   2.373       .  S
Zr1885     O1917   2.363       .  S
O1886      H1929   0.990       .  S
O1887      H1928   0.990       .  S
O1887      H1932   0.990       .  S
Zr1888     O1889   2.434       .  S
Zr1888     O1890   2.437       .  S
Zr1888     O1892   2.379       .  S
Zr1888     O1891   2.368       .  S
Zr1888     O1916   2.378       .  S
Zr1888     O1918   2.360       .  S
O1889      H1930   0.990       .  S
O1889      H1933   0.990       .  S
O1890      H1923   0.990       .  S
O1891     Zr1911   2.380       .  S
O1892     Zr1912   2.396       .  S
O1892      H1919   0.966       .  S
O1893     Zr1905   2.402       .  S
O1893      C1895   1.279       .  A
O1894     Zr1912   2.480       .  S
O1894      C1895   1.298       .  A
C1895      C2490   1.484       .  S
O1896     Zr1908   2.464       .  S
O1896      C1898   1.291       .  A
O1897     Zr1911   2.430       .  S
O1897      C1898   1.282       .  A
C1898      C2470   1.480       .  S
O1899     Zr1908   2.456       .  S
O1899      C1901   1.291       .  A
O1900     Zr1912   2.411       .  S
O1900      C1901   1.282       .  A
C1901      C2474   1.465       .  S
O1902     Zr1905   2.457       .  S
O1902      C1904   1.288       .  A
O1903     Zr1911   2.426       .  S
O1903      C1904   1.281       .  A
C1904      C2469   1.477       .  S
Zr1905     O1906   2.439       .  S
Zr1905     O1907   2.437       .  S
Zr1905     O1913   2.416       .  S
Zr1905     O1914   2.337       .  S
Zr1905     O1917   2.369       .  S
Zr1905     O1915   2.365       .  S
O1906      H1926   0.990       .  S
O1906      H1931   0.990       .  S
O1907      H1927   0.990       .  S
Zr1908     O1909   2.417       .  S
Zr1908     O1910   2.431       .  S
Zr1908     O1914   2.345       .  S
Zr1908     O1913   2.382       .  S
Zr1908     O1918   2.359       .  S
Zr1908     O1916   2.362       .  S
O1909      H1925   0.990       .  S
O1910      H1924   0.989       .  S
O1910      H1934   0.989       .  S
Zr1911     O1914   2.360       .  S
Zr1911     O1916   2.388       .  S
Zr1911     O1917   2.388       .  S
Zr1912     O1913   2.400       .  S
Zr1912     O1915   2.389       .  S
Zr1912     O1918   2.386       .  S
O1913      H1921   0.965       .  S
O1916      H1920   0.963       .  S
O1917      H1922   0.966       .  S
O1935     Zr1947   2.390       .  S
O1935      C1937   1.277       .  A
O1936     Zr1973   2.455       .  S
O1936      C1937   1.292       .  A
C1937      C2454   1.469       .  S
O1938     Zr1950   2.405       .  S
O1938      C1940   1.281       .  A
O1939     Zr1974   2.514       .  S
O1939      C1940   1.308       .  A
C1940      C2441   1.494       .  S
O1941      C1943   1.296       .  A
O1942     Zr1973   2.399   1_554  S
O1944     Zr1947   2.376       .  S
O1944      C1946   1.267       .  A
O1945     Zr1974   2.399       .  S
O1945      C1946   1.269       .  A
C1946      C2457   1.425       .  S
Zr1947     O1948   2.435       .  S
Zr1947     O1949   2.435       .  S
Zr1947     O1953   2.373       .  S
Zr1947     O1954   2.385       .  S
Zr1947     O1977   2.375       .  S
Zr1947     O1979   2.368       .  S
O1948      H1991   0.990       .  S
O1949      H1990   0.990       .  S
O1949      H1994   0.990       .  S
Zr1950     O1951   2.434   1_556  S
Zr1950     O1952   2.428   1_556  S
Zr1950     O1954   2.371       .  S
Zr1950     O1953   2.364       .  S
Zr1950     O1978   2.302       .  S
Zr1950     O1980   2.423       .  S
O1951      H1992   0.990       .  S
O1953     Zr1973   2.372       .  S
O1954     Zr1974   2.406       .  S
O1954      H1981   0.964       .  S
O1955     Zr1967   2.432       .  S
O1955      C1957   1.286       .  A
O1956     Zr1974   2.486       .  S
O1956      C1957   1.300       .  A
C1957      C2466   1.501       .  S
O1958     Zr1970   2.504       .  S
O1958      C1960   1.298       .  A
O1959     Zr1973   2.408       .  S
O1959      C1960   1.280       .  A
C1960      C2449   1.487   1_556  S
O1961     Zr1970   2.473       .  S
O1961      C1963   1.293       .  A
O1962     Zr1974   2.419       .  S
O1962      C1963   1.287       .  A
C1963      C2445   1.474       .  S
O1964     Zr1967   2.403       .  S
O1964      C1966   1.279       .  A
O1965     Zr1973   2.390       .  S
O1965      C1966   1.283       .  A
C1966      C2461   1.448       .  S
Zr1967     O1968   2.437       .  S
Zr1967     O1969   2.436       .  S
Zr1967     O1975   2.368       .  S
Zr1967     O1976   2.374       .  S
Zr1967     O1979   2.384       .  S
Zr1967     O1977   2.347       .  S
O1968      H1988   0.990       .  S
O1968      H1993   0.990       .  S
O1969      H1989   0.990       .  S
Zr1970     O1971   2.434       .  S
Zr1970     O1972   2.436       .  S
Zr1970     O1976   2.377       .  S
Zr1970     O1975   2.351       .  S
Zr1970     O1980   2.408       .  S
Zr1970     O1978   2.323       .  S
O1971      H1987   0.990       .  S
O1972      H1986   0.990       .  S
O1972      H1996   0.990       .  S
Zr1973     O1976   2.392       .  S
Zr1973     O1978   2.380       .  S
Zr1973     O1979   2.380       .  S
Zr1974     O1975   2.385       .  S
Zr1974     O1977   2.384       .  S
Zr1974     O1980   2.392       .  S
O1975      H1983   0.965       .  S
O1978      H1982   0.948       .  S
O1979      H1984   0.966       .  S
O1997     Zr4505   2.311       .  S
O1997      C1999   1.242   1_655  A
O1998     Zr3907   2.491   1_455  S
O1998      C1999   1.274       .  A
C1999      C2425   1.482       .  S
O2000     Zr2012   2.474       .  S
O2000      C2002   1.296       .  A
O2001     Zr2036   2.418       .  S
O2001      C2002   1.285       .  A
C2002      C2433   1.487       .  S
O2003     Zr3884   2.482   1_556  S
O2003      C2005   1.295   1_655  A
O2004     Zr4531   2.361   1_455  S
O2004      C2005   1.276       .  A
C2005      C2453   1.471       .  S
O2006     Zr2009   2.373       .  S
O2006      C2008   1.266       .  A
O2007     Zr2036   2.416       .  S
O2007      C2008   1.279       .  A
C2008      C2421   1.451       .  S
Zr2009     O4493   2.314       .  S
Zr2009     O2010   2.435       .  S
Zr2009     O2011   2.433       .  S
Zr2009     O2015   2.383       .  S
Zr2009     O2016   2.375       .  S
Zr2009     O2039   2.372       .  S
Zr2009     O2041   2.414       .  S
O2010      H4549   0.990       .  S
O2011      H2052   0.988       .  S
O2011      H2056   0.989       .  S
Zr2012     O3875   2.480       .  S
Zr2012     O2013   2.436       .  S
Zr2012     O2016   2.387       .  S
Zr2012     O2015   2.365       .  S
O2013      H2054   0.990       .  S
O2013      H2057   0.990       .  S
O2014      H2047   0.990       .  S
O2016     Zr2036   2.389       .  S
O2016      H2043   0.966       .  S
O2017      C2019   1.297       .  A
O2018     Zr2036   2.404       .  S
O2018      C2019   1.279       .  A
O2020     Zr2032   2.402       .  S
O2020      C2022   1.279       .  A
O2021     Zr2035   2.471       .  S
O2021      C2022   1.294       .  A
C2022      C2417   1.485       .  S
O2023     Zr2032   2.510       .  S
O2023      C2025   1.296       .  A
O2024      C2025   1.275       .  A
C2025      C2438   1.486       .  S
O2026      C2028   1.294       .  A
O2027     Zr2035   2.380       .  S
C2028      C2430   1.491       .  S
Zr2029     O2030   2.438   1_565  S
Zr2029     O2037   2.344       .  S
Zr2029     O2038   2.401       .  S
O2030      H2050   0.990       .  S
O2031      H2051   0.990       .  S
Zr2032     O2033   2.435       .  S
Zr2032     O2034   2.434       .  S
Zr2032     O2038   2.418       .  S
Zr2032     O2037   2.312       .  S
Zr2032     O2042   2.359       .  S
Zr2032     O2040   2.380       .  S
O2033      H2049   0.991       .  S
O2034      H2048   0.990       .  S
O2034      H2058   0.990       .  S
Zr2035     O3870   2.476   1_556  S
Zr2035     O4500   2.366       .  S
Zr2035     O2038   2.385       .  S
Zr2035     O2040   2.404       .  S
Zr2036     O2039   2.394       .  S
O2037      H2045   0.949       .  S
O2040      H2044   0.966       .  S
O2041      H2046   0.968       .  S
H2053      O4506   0.990       .  S
O2059     Zr4567   2.366   1_455  S
O2059      C2061   1.272       .  A
O2060     Zr4593   2.491   1_455  S
O2060      C2061   1.300       .  A
C2061      C2401   1.478       .  S
O2062     Zr2074   2.353       .  S
O2062      C2064   1.269       .  A
O2063     Zr2098   2.653       .  S
O2063      C2064   1.338       .  A
C2064      C2409   1.529       .  S
O2065     Zr4570   2.435       .  S
O2065      C2067   1.283   1_655  A
O2066     Zr4593   2.408   1_455  S
O2066      C2067   1.287       .  A
C2067      C2485   1.465       .  S
O2068     Zr2071   2.423       .  S
O2068      C2070   1.283       .  A
O2069     Zr2098   2.462       .  S
O2069      C2070   1.295       .  A
C2070      C2418   1.482       .  S
Zr2071     O4555   2.371       .  S
Zr2071     O2072   2.432       .  S
Zr2071     O2073   2.429       .  S
Zr2071     O2077   2.372       .  S
Zr2071     O2078   2.357       .  S
Zr2071     O2101   2.333       .  S
Zr2071     O2103   2.414       .  S
O2072      H4611   0.990       .  S
O2073      H2114   0.983   1_565  S
O2073      H2118   0.990       .  S
Zr2074     O4561   2.452       .  S
Zr2074     O2075   2.437       .  S
Zr2074     O2076   2.435       .  S
Zr2074     O2078   2.391       .  S
Zr2074     O2077   2.320       .  S
Zr2074     O2102   2.351       .  S
Zr2074     O2104   2.387       .  S
O2075      H2116   0.990       .  S
O2075      H2119   0.990       .  S
O2076      H2109   0.990       .  S
O2077     Zr2097   2.374       .  S
O2078     Zr2098   2.394       .  S
O2078      H2105   0.965       .  S
O2079     Zr2091   2.337   1_545  S
O2079      C2081   1.266   1_545  A
O2080     Zr2098   2.646       .  S
O2080      C2081   1.335       .  A
O2082     Zr2094   2.350       .  S
O2082      C2084   1.271       .  A
O2083     Zr2097   2.479       .  S
O2083      C2084   1.296       .  A
C2084      C2422   1.472       .  S
O2085     Zr2094   2.440       .  S
O2085      C2087   1.286       .  A
O2086     Zr2098   2.400       .  S
O2086      C2087   1.285       .  A
C2087      C2482   1.462       .  S
O2088      C2090   1.296       .  A
O2089     Zr2097   2.380       .  S
C2090      C2405   1.492       .  S
Zr2091     O2092   2.436       .  S
Zr2091     O2099   2.398       .  S
Zr2091     O2100   2.308       .  S
Zr2091     O2103   2.334       .  S
Zr2091     O2101   2.414       .  S
O2092      H2112   0.990       .  S
O2093      H2113   0.990       .  S
Zr2094     O2095   2.434       .  S
Zr2094     O2096   2.434       .  S
Zr2094     O2100   2.372       .  S
Zr2094     O2099   2.358       .  S
Zr2094     O2104   2.311       .  S
Zr2094     O2102   2.385       .  S
O2095      H2111   0.990       .  S
O2096      H2110   0.990       .  S
O2096      H2120   0.990       .  S
Zr2097     O4556   2.490       .  S
Zr2097     O4562   2.366       .  S
Zr2097     O2100   2.368       .  S
Zr2097     O2102   2.391       .  S
Zr2097     O2103   2.382       .  S
Zr2098     O2099   2.408       .  S
Zr2098     O2101   2.386       .  S
Zr2098     O2104   2.384       .  S
O2099      H2107   0.965       .  S
O2102      H2106   0.966       .  S
O2103      H2108   0.964       .  S
H2115      O4568   0.991       .  S
O2121     Zr2133   2.621       .  S
O2121      C2123   1.321       .  A
O2122     Zr2159   2.317       .  S
O2122      C2123   1.257       .  A
C2123      C2477   1.516       .  S
O2124      C2126   1.279       .  A
O2125      C2126   1.279       .  A
C2126      C2386   1.458       .  S
O2128     Zr2159   2.540       .  S
O2128      C2129   1.302       .  A
O2130     Zr2133   2.487       .  S
O2130      C2132   1.299       .  A
O2131     Zr2160   2.415       .  S
O2131      C2132   1.286       .  A
C2132      C2434   1.484       .  S
Zr2133     O2134   2.430       .  S
Zr2133     O2135   2.435       .  S
Zr2133     O2139   2.339       .  S
Zr2133     O2140   2.415       .  S
Zr2133     O2163   2.425       .  S
Zr2133     O2165   2.340       .  S
O2134      H2177   0.990       .  S
O2135      H2176   0.990       .  S
O2135      H2180   0.990       .  S
Zr2136     O2140   2.357       .  S
Zr2136     O2139   2.388       .  S
Zr2136     O2164   2.376       .  S
Zr2136     O2166   2.359       .  S
O2137      H2178   0.988       .  S
O2137      H2181   0.989       .  S
O2138      H2171   0.990       .  S
O2139     Zr2159   2.381       .  S
O2140     Zr2160   2.389       .  S
O2140      H2167   0.964       .  S
O2141     Zr2153   2.495       .  S
O2141      C2143   1.292       .  A
O2142     Zr2160   2.401       .  S
O2142      C2143   1.276       .  A
C2143      C2393   1.488       .  S
O2144     Zr2156   2.503       .  S
O2144      C2146   1.294       .  A
O2145     Zr2159   2.366       .  S
O2145      C2146   1.267       .  A
C2146      C2398   1.467       .  S
O2147     Zr2156   2.503       .  S
O2147      C2149   1.298       .  A
O2148     Zr2160   2.415       .  S
O2148      C2149   1.280       .  A
C2149      C2394   1.487       .  S
O2150     Zr2153   2.385       .  S
O2150      C2152   1.278       .  A
O2151     Zr2159   2.458       .  S
O2151      C2152   1.292       .  A
C2152      C2390   1.473       .  S
Zr2153     O2154   2.436       .  S
Zr2153     O2155   2.434       .  S
Zr2153     O2161   2.298       .  S
Zr2153     O2162   2.417       .  S
Zr2153     O2165   2.369       .  S
Zr2153     O2163   2.366       .  S
O2154      H2174   0.990       .  S
O2154      H2179   0.990       .  S
O2155      H2175   0.990       .  S
Zr2156     O2157   2.433       .  S
Zr2156     O2158   2.435       .  S
Zr2156     O2162   2.402       .  S
Zr2156     O2161   2.346       .  S
Zr2156     O2166   2.392       .  S
Zr2156     O2164   2.359       .  S
O2157      H2173   0.990       .  S
O2158      H2182   0.990       .  S
Zr2159     O2162   2.380       .  S
Zr2159     O2164   2.396       .  S
Zr2159     O2165   2.386       .  S
Zr2160     O2161   2.382       .  S
Zr2160     O2163   2.393       .  S
Zr2160     O2166   2.386       .  S
O2161      H2169   0.950       .  S
O2164      H2168   0.959       .  S
O2165      H2170   0.965       .  S
O2183     Zr2195   2.473       .  S
O2183      C2185   1.290       .  A
O2184     Zr2221   2.396       .  S
O2184      C2185   1.279       .  A
C2185      C2446   1.473       .  S
O2186     Zr2198   2.414       .  S
O2186      C2188   1.281       .  A
O2187     Zr2222   2.426       .  S
O2187      C2188   1.288       .  A
C2188      C2389   1.465       .  S
O2189     Zr2198   2.395       .  S
O2189      C2191   1.282       .  A
O2190     Zr2221   2.459       .  S
O2190      C2191   1.291       .  A
C2191      C2473   1.477       .  S
O2192     Zr2195   2.293       .  S
O2192      C2194   1.259       .  A
O2193     Zr2222   2.678       .  S
O2193      C2194   1.342       .  A
C2194      C2410   1.537       .  S
Zr2195     O2196   2.433       .  S
Zr2195     O2197   2.437       .  S
Zr2195     O2201   2.327       .  S
Zr2195     O2202   2.416       .  S
Zr2195     O2225   2.403       .  S
Zr2195     O2227   2.308       .  S
O2196      H2239   0.990       .  S
O2197      H2238   0.990       .  S
O2197      H2242   0.990       .  S
Zr2198     O2199   2.417       .  S
Zr2198     O2200   2.430       .  S
Zr2198     O2202   2.342       .  S
Zr2198     O2201   2.384       .  S
Zr2198     O2226   2.333       .  S
Zr2198     O2228   2.344       .  S
O2199      H2240   0.990       .  S
O2199      H2243   0.990       .  S
O2200      H2233   0.990       .  S
O2201     Zr2221   2.355       .  S
O2202     Zr2222   2.403       .  S
O2202      H2229   0.965       .  S
O2203     Zr2215   2.530       .  S
O2203      C2205   1.307       .  A
O2204     Zr2222   2.415       .  S
O2204      C2205   1.283       .  A
C2205      C2377   1.505       .  S
O2206     Zr2218   2.515       .  S
O2206      C2208   1.301       .  A
O2207     Zr2221   2.357       .  S
O2207      C2208   1.274       .  A
C2208      C2382   1.475       .  S
O2209     Zr2218   2.389       .  S
O2209      C2211   1.277       .  A
O2210     Zr2222   2.642       .  S
O2210      C2211   1.336       .  A
C2211      C2414   1.533       .  S
O2212     Zr2215   2.415       .  S
O2212      C2214   1.286       .  A
O2213     Zr2221   2.408       .  S
O2213      C2214   1.285       .  A
C2214      C2385   1.447       .  S
Zr2215     O2216   2.437       .  S
Zr2215     O2217   2.434       .  S
Zr2215     O2223   2.319       .  S
Zr2215     O2224   2.416       .  S
Zr2215     O2227   2.393       .  S
Zr2215     O2225   2.350       .  S
O2216      H2236   0.990       .  S
O2216      H2241   0.990       .  S
O2217      H2237   0.990       .  S
Zr2218     O2219   2.434       .  S
Zr2218     O2220   2.438       .  S
Zr2218     O2224   2.349       .  S
Zr2218     O2223   2.424       .  S
Zr2218     O2228   2.394       .  S
Zr2218     O2226   2.340       .  S
O2219      H2235   0.990       .  S
O2220      H2234   0.990       .  S
O2220      H2244   0.990       .  S
Zr2221     O2224   2.393       .  S
Zr2221     O2226   2.373       .  S
Zr2221     O2227   2.376       .  S
Zr2222     O2223   2.412       .  S
Zr2222     O2225   2.400       .  S
Zr2222     O2228   2.402       .  S
O2223      H2231   0.964       .  S
O2226      H2230   0.963       .  S
O2227      H2232   0.965       .  S
O2245      C2247   1.266   1_545  A
O2246      C2247   1.296       .  A
C2247      C2426   1.483       .  S
O2248     Zr2260   2.390       .  S
O2248      C2250   1.278       .  A
O2249     Zr2284   2.494       .  S
O2249      C2250   1.301       .  A
C2250      C2397   1.479       .  S
O2251     Zr2260   2.447       .  S
O2252      C2253   1.282   1_545  A
C2253      C2493   1.454       .  S
O2254     Zr2257   2.381       .  S
O2254      C2256   1.274       .  A
O2255     Zr2284   2.448       .  S
O2255      C2256   1.291       .  A
C2256      C2374   1.465       .  S
Zr2257     O2258   2.438       .  S
Zr2257     O2259   2.444       .  S
Zr2257     O2263   2.367       .  S
Zr2257     O2264   2.354       .  S
Zr2257     O2287   2.371       .  S
Zr2257     O2289   2.357       .  S
O2259      H4796   0.988   1_455  S
O2259      H2304   0.990   1_455  S
Zr2260     O2261   2.436       .  S
Zr2260     O2262   2.435       .  S
Zr2260     O2264   2.397       .  S
Zr2260     O2263   2.333       .  S
Zr2260     O2288   2.359       .  S
Zr2260     O2290   2.363       .  S
O2261      H2302   0.990       .  S
O2261      H2305   0.990       .  S
O2262      H2295   0.990       .  S
O2263     Zr2283   2.338       .  S
O2264     Zr2284   2.376       .  S
O2264      H2291   0.963       .  S
O2265     Zr2277   2.427       .  S
O2265      C2267   1.286       .  A
O2266     Zr2284   2.479       .  S
O2266      C2267   1.299       .  A
C2267      C2489   1.476       .  S
O2268     Zr2280   2.500       .  S
O2268      C2270   1.301       .  A
O2269     Zr2283   2.411       .  S
O2269      C2270   1.284       .  A
C2270      C2369   1.478       .  S
O2271     Zr2280   2.550       .  S
O2271      C2273   1.312       .  A
O2272     Zr2284   2.430       .  S
O2272      C2273   1.285       .  A
C2273      C2478   1.516       .  S
O2274     Zr4773   2.533       .  S
O2274      C4772   1.304       .  A
O2275     Zr2283   2.377       .  S
O2275      C2276   1.282       .  A
C2276      O4770   1.298       .  A
C2276      C4902   1.507   1_455  S
Zr2277     O4770   2.511       .  S
Zr2277     O2278   2.437       .  S
Zr2277     O4775   2.433   1_455  S
Zr2277     O2285   2.419       .  S
Zr2277     O2286   2.344       .  S
Zr2277     O2289   2.374       .  S
Zr2277     O2287   2.401       .  S
O2278      H2298   0.990       .  S
O2278      H4799   0.990       .  S
O2279     Zr4773   2.433       .  S
O2279      H2299   0.990       .  S
Zr2280     O2281   2.432       .  S
Zr2280     O2282   2.431       .  S
Zr2280     O2286   2.377       .  S
Zr2280     O2285   2.334       .  S
Zr2280     O2290   2.364       .  S
Zr2280     O2288   2.376       .  S
O2281      H2297   0.990       .  S
O2282      H2296   0.990       .  S
O2282      H2306   0.990       .  S
Zr2283     O2286   2.373       .  S
Zr2283     O2288   2.400       .  S
Zr2283     O2289   2.382       .  S
Zr2284     O2285   2.410       .  S
Zr2284     O2287   2.403       .  S
Zr2284     O2290   2.395       .  S
O2285      H2293   0.962       .  S
O2288      H2292   0.965       .  S
O2289      H2294   0.965       .  S
H2300      O4755   0.989       .  S
H2303      O4774   0.990       .  S
O2307      C2309   1.276       .  A
O2308      C2309   1.298       .  A
C2309      C2402   1.505       .  S
O2310     Zr2322   2.353       .  S
O2310      C2312   1.273       .  A
O2311     Zr2346   2.523       .  S
O2311      C2312   1.307       .  A
C2312      C2381   1.480       .  S
O2313      C2315   1.289   1_545  A
O2314      C2315   1.276   1_545  A
C2315      C2462   1.436       .  S
O2316     Zr2319   2.484       .  S
O2316      C2318   1.294       .  A
O2317     Zr2346   2.411       .  S
O2317      C2318   1.282       .  A
C2318      C2370   1.483       .  S
Zr2319     O2320   2.429       .  S
Zr2319     O2321   2.429   1_455  S
Zr2319     O2325   2.374       .  S
Zr2319     O2326   2.348       .  S
Zr2319     O2349   2.340       .  S
Zr2319     O2351   2.422       .  S
O2321      H4858   0.989       .  S
O2321      H2366   0.990       .  S
Zr2322     O2323   2.436       .  S
Zr2322     O2324   2.436       .  S
Zr2322     O2326   2.382       .  S
Zr2322     O2325   2.307       .  S
Zr2322     O2350   2.344       .  S
Zr2322     O2352   2.367       .  S
O2323      H2364   0.990       .  S
O2323      H2367   0.990       .  S
O2324      H2357   0.990       .  S
O2325     Zr2345   2.358       .  S
O2326     Zr2346   2.383       .  S
O2326      H2353   0.962       .  S
O2327     Zr2339   2.369   1_655  S
O2327      C2329   1.263       .  A
O2328     Zr2346   2.577       .  S
O2328      C2329   1.313   1_455  A
C2329      C4874   1.517       .  S
O2330     Zr2342   2.368       .  S
O2330      C2332   1.275       .  A
O2331     Zr2345   2.470       .  S
O2331      C2332   1.295       .  A
C2332      C2373   1.465       .  S
O2333     Zr2342   2.406       .  S
O2333      C2335   1.283       .  A
O2334     Zr2346   2.346       .  S
O2334      C2335   1.271       .  A
C2335      C2458   1.417       .  S
O2336     Zr4835   2.492       .  S
O2336      C2338   1.295       .  A
O2337     Zr2345   2.422       .  S
O2337      C4834   1.287   1_455  A
C2338      O4833   1.283       .  A
C2338      C2429   1.478       .  S
Zr2339     O4832   2.477   1_455  S
Zr2339     O2340   2.438   1_455  S
Zr2339     O4837   2.436   1_455  S
Zr2339     O2347   2.414       .  S
Zr2339     O2348   2.328       .  S
Zr2339     O2351   2.364       .  S
Zr2339     O2349   2.408       .  S
O2340      H2360   0.990       .  S
O2340      H4861   0.990       .  S
O2341     Zr4835   2.435       .  S
O2341      H2361   0.990       .  S
Zr2342     O2343   2.434       .  S
Zr2342     O2344   2.437       .  S
Zr2342     O2348   2.371       .  S
Zr2342     O2347   2.342       .  S
Zr2342     O2352   2.332       .  S
Zr2342     O2350   2.343       .  S
O2343      H2359   0.990       .  S
O2344      H2358   0.990       .  S
O2344      H2368   0.990       .  S
Zr2345     O2348   2.358       .  S
Zr2345     O2350   2.392       .  S
Zr2345     O2351   2.398       .  S
Zr2346     O2347   2.403       .  S
Zr2346     O2349   2.383       .  S
Zr2346     O2352   2.408       .  S
O2347      H2355   0.965       .  S
O2350      H2354   0.965       .  S
O2351      H4852   0.963       .  S
H2356      O4847   0.962       .  S
H2362      O4817   0.989       .  S
H2365      O4836   0.990       .  S
C2369      C2370   1.347       .  D
C2369      H2371   1.087       .  S
C2370      H2372   1.087       .  S
C2373      H2375   1.086       .  S
C2374      H2376   1.086       .  S
C2377      C2378   1.382       .  D
C2377      H2379   1.086       .  S
C2378      C4825   1.518       .  S
C2378      H2380   1.085       .  S
C2381      C2382   1.370       .  D
C2381      H2383   1.087       .  S
C2382      H2384   1.086       .  S
C2385      C2386   1.344       .  D
C2385      H2387   1.087       .  S
C2386      H2388   1.087       .  S
C2389      C2390   1.356       .  D
C2389      H2391   1.087       .  S
C2390      H2392   1.087       .  S
C2393      C2394   1.366       .  D
C2393      H2395   1.085       .  S
C2394      H2396   1.085       .  S
C2397      C2398   1.362       .  D
C2397      H2399   1.083       .  S
C2398      H2400   1.086       .  S
C2401      C2402   1.368       .  D
C2401      H2403   1.086       .  S
C2402      H2404   1.083       .  S
C2405      C2406   1.362       .  D
C2405      H2407   1.087       .  S
C2406      C4772   1.511       .  S
C2406      H4904   1.085       .  S
H2408      C4902   1.085       .  S
C2409      C2410   1.416       .  D
C2409      H2411   1.085       .  S
C2410      H2412   1.085       .  S
C2413      C2414   1.409       .  D
C2414      H2416   1.085       .  S
C2417      C2418   1.361       .  D
C2417      H2419   1.086       .  S
C2418      H2420   1.086       .  S
C2421      C2422   1.361       .  D
C2421      H2423   1.086       .  S
C2422      H2424   1.084       .  S
C2425      C2426   1.370       .  D
C2425      H2427   1.085       .  S
C2426      H2428   1.083       .  S
C2429      C2430   1.352       .  D
C2429      H2431   1.088       .  S
C2433      C2434   1.343       .  D
C2433      H2435   1.087       .  S
C2434      H2436   1.087       .  S
C2437      C2438   1.367       .  D
C2437      H2439   1.085       .  S
C2438      H2440   1.085       .  S
C2441      C2442   1.374   1_556  D
C2441      H2443   1.085       .  S
C2442      H2444   1.086       .  S
C2445      C2446   1.346       .  D
C2445      H2447   1.086       .  S
C2446      H2448   1.087       .  S
C2449      C2450   1.367       .  D
C2449      H2451   1.085       .  S
C2450      H2452   1.085       .  S
C2453      C2454   1.358       .  D
C2453      H2455   1.086       .  S
C2454      H2456   1.087       .  S
C2457      C2458   1.331       .  D
C2457      H2459   1.089       .  S
C2458      H2460   1.087       .  S
C2461      C2462   1.331       .  D
C2461      H2463   1.087       .  S
C2462      H2464   1.087       .  S
C2465      C2466   1.359       .  D
C2465      H2467   1.086       .  S
C2466      H2468   1.086       .  S
C2469      C2470   1.355       .  D
C2469      H2471   1.084       .  S
C2470      H2472   1.085       .  S
C2473      C2474   1.349       .  D
C2473      H2475   1.087       .  S
C2474      H2476   1.087       .  S
C2477      C2478   1.383       .  D
C2477      H2479   1.085       .  S
C2478      H2480   1.087       .  S
C2481      C2482   1.340       .  D
C2481      H2483   1.087       .  S
C2482      H2484   1.088       .  S
C2485      C2486   1.334       .  D
C2485      H2487   1.087       .  S
C2486      H2488   1.088       .  S
C2489      C2490   1.364       .  D
C2489      H2491   1.086       .  S
C2490      H2492   1.086       .  S
C2493      C2494   1.341       .  D
C2493      H2495   1.088       .  S
C2494      H2496   1.087       .  S
O2497     Zr2509   2.424       .  S
O2497      C2499   1.288       .  A
O2498     Zr2535   2.400       .  S
O2498      C2499   1.280       .  A
C2499      C3118   1.463       .  S
O2500     Zr2512   2.464       .  S
O2500      C2502   1.292       .  A
O2501     Zr2536   2.456       .  S
O2501      C2502   1.292       .  A
C2502      C3089   1.485       .  S
O2503     Zr2512   2.456       .  S
O2503      C2505   1.290       .  A
O2504     Zr2535   2.407       .  S
O2504      C2505   1.286       .  A
C2505      C3105   1.470       .  S
O2506     Zr2509   2.431       .  S
O2506      C2508   1.289       .  A
O2507     Zr2536   2.406       .  S
O2507      C2508   1.280       .  A
C2508      C3110   1.465       .  S
Zr2509     O2510   2.434       .  S
Zr2509     O2511   2.436       .  S
Zr2509     O2515   2.368       .  S
Zr2509     O2516   2.358       .  S
Zr2509     O2539   2.374       .  S
Zr2509     O2541   2.370       .  S
O2510      H2553   0.990       .  S
O2511      H2552   0.990       .  S
O2511      H2556   0.990       .  S
Zr2512     O2513   2.435       .  S
Zr2512     O2514   2.435       .  S
Zr2512     O2516   2.375       .  S
Zr2512     O2515   2.370       .  S
Zr2512     O2540   2.373       .  S
Zr2512     O2542   2.369       .  S
O2513      H2554   0.990       .  S
O2513      H2557   0.990       .  S
O2514      H2547   0.990       .  S
O2515     Zr2535   2.385       .  S
O2516     Zr2536   2.395       .  S
O2516      H2543   0.966       .  S
O2517     Zr2529   2.393       .  S
O2517      C2519   1.277       .  A
O2518     Zr2536   2.476       .  S
O2518      C2519   1.296       .  A
C2519      C3114   1.480       .  S
O2520     Zr2532   2.463       .  S
O2520      C2522   1.290       .  A
O2521     Zr2535   2.430       .  S
O2521      C2522   1.282       .  A
C2522      C3094   1.479       .  S
O2523     Zr2532   2.465       .  S
O2523      C2525   1.292       .  A
O2524     Zr2536   2.394       .  S
O2524      C2525   1.278       .  A
C2525      C3098   1.463       .  S
O2526     Zr2529   2.456       .  S
O2526      C2528   1.287       .  A
O2527     Zr2535   2.425       .  S
O2527      C2528   1.281       .  A
C2528      C3093   1.477       .  S
Zr2529     O2530   2.439       .  S
Zr2529     O2531   2.437       .  S
Zr2529     O2537   2.417       .  S
Zr2529     O2538   2.337       .  S
Zr2529     O2541   2.363       .  S
Zr2529     O2539   2.370       .  S
O2530      H2550   0.990       .  S
O2530      H2555   0.990       .  S
O2531      H2551   0.990       .  S
Zr2532     O2533   2.415       .  S
Zr2532     O2534   2.431       .  S
Zr2532     O2538   2.349       .  S
Zr2532     O2537   2.383       .  S
Zr2532     O2542   2.357       .  S
Zr2532     O2540   2.363       .  S
O2533      H2549   0.990       .  S
O2534      H2548   0.989       .  S
O2534      H2558   0.989       .  S
Zr2535     O2538   2.360       .  S
Zr2535     O2540   2.385       .  S
Zr2535     O2541   2.392       .  S
Zr2536     O2537   2.394       .  S
Zr2536     O2539   2.390       .  S
Zr2536     O2542   2.388       .  S
O2537      H2545   0.965       .  S
O2540      H2544   0.963       .  S
O2541      H2546   0.966       .  S
O2559     Zr2571   2.392       .  S
O2559      C2561   1.277       .  A
O2560     Zr2597   2.447       .  S
O2560      C2561   1.290       .  A
C2561      C3078   1.466       .  S
O2562     Zr2574   2.408       .  S
O2562      C2564   1.282       .  A
O2563     Zr2598   2.508       .  S
O2563      C2564   1.307       .  A
C2564      C3065   1.491       .  S
O2565     Zr3198   2.500   1_554  S
O2565      C2567   1.296       .  A
O2566     Zr2597   2.396       .  S
O2566      C3191   1.277       .  A
C2567      O3190   1.278       .  A
C2567      C3698   1.487       .  S
O2568     Zr2571   2.375       .  S
O2568      C2570   1.268       .  A
O2569     Zr2598   2.397       .  S
O2569      C2570   1.271       .  A
C2570      C3081   1.424       .  S
Zr2571     O2572   2.434       .  S
Zr2571     O2573   2.436       .  S
Zr2571     O2577   2.373       .  S
Zr2571     O2578   2.378       .  S
Zr2571     O2601   2.373       .  S
Zr2571     O2603   2.357       .  S
O2572      H2615   0.990       .  S
O2573      H2614   0.990       .  S
O2573      H2618   0.990       .  S
Zr2574     O3189   2.504       .  S
Zr2574     O2575   2.434       .  S
Zr2574     O2576   2.427       .  S
Zr2574     O2578   2.370       .  S
Zr2574     O2577   2.363       .  S
Zr2574     O2602   2.305       .  S
Zr2574     O2604   2.424       .  S
O2575      H2616   0.990       .  S
O2575      H3243   0.990       .  S
O2576      H3233   0.990       .  S
O2577     Zr2597   2.372       .  S
O2578     Zr2598   2.405       .  S
O2578      H2605   0.964       .  S
O2579     Zr2591   2.439       .  S
O2579      C2581   1.288       .  A
O2580     Zr2598   2.477       .  S
O2580      C2581   1.298       .  A
C2581      C3090   1.497       .  S
O2582     Zr2594   2.502       .  S
O2582      C2584   1.297       .  A
O2583     Zr2597   2.407       .  S
O2583      C2584   1.279       .  A
C2584      C3073   1.488       .  S
O2585     Zr2594   2.468       .  S
O2585      C2587   1.291       .  A
O2586     Zr2598   2.431       .  S
O2586      C2587   1.291       .  A
C2587      C3069   1.484       .  S
O2588     Zr2591   2.398       .  S
O2588      C2590   1.279       .  A
O2589     Zr2597   2.377       .  S
O2589      C2590   1.279       .  A
C2590      C3085   1.428       .  S
Zr2591     O2592   2.436       .  S
Zr2591     O2593   2.436       .  S
Zr2591     O2599   2.363       .  S
Zr2591     O2600   2.382       .  S
Zr2591     O2603   2.382       .  S
Zr2591     O2601   2.343       .  S
O2592      H2612   0.990       .  S
O2592      H2617   0.990       .  S
O2593      H2613   0.990       .  S
Zr2594     O2595   2.434       .  S
Zr2594     O2596   2.436       .  S
Zr2594     O2600   2.383       .  S
Zr2594     O2599   2.351       .  S
Zr2594     O2604   2.411       .  S
Zr2594     O2602   2.321       .  S
O2595      H2611   0.990       .  S
O2596      H2610   0.990       .  S
O2596      H2620   0.990       .  S
Zr2597     O2600   2.395       .  S
Zr2597     O2602   2.376       .  S
Zr2597     O2603   2.379       .  S
Zr2598     O2599   2.382       .  S
Zr2598     O2601   2.383       .  S
Zr2598     O2604   2.389       .  S
O2599      H2607   0.964       .  S
O2602      H2606   0.949       .  S
O2603      H2608   0.966       .  S
H2609      O3200   0.990       .  S
H2619      O3199   0.990       .  S
O2621      C2623   1.249       .  A
O2622      C2623   1.267       .  A
C2623      C3049   1.479       .  S
O2624     Zr2636   2.467       .  S
O2624      C2626   1.294       .  A
O2625     Zr2660   2.420       .  S
O2625      C2626   1.285       .  A
C2626      C3057   1.485       .  S
O2627      C2629   1.294       .  A
O2628      C2629   1.276       .  A
C2629      C3077   1.469       .  S
O2630     Zr2633   2.393       .  S
O2630      C2632   1.270       .  A
O2631     Zr2660   2.421       .  S
O2631      C2632   1.280       .  A
C2632      C3045   1.461       .  S
Zr2633     O2634   2.436       .  S
Zr2633     O2635   2.437       .  S
Zr2633     O2639   2.386       .  S
Zr2633     O2640   2.375       .  S
Zr2633     O2663   2.374       .  S
Zr2633     O2665   2.420       .  S
O2635      H2676   0.988       .  S
O2635      H2680   0.990       .  S
Zr2636     O2637   2.436       .  S
Zr2636     O3262   2.435   1_554  S
Zr2636     O2640   2.391       .  S
Zr2636     O2639   2.362       .  S
Zr2636     O3288   2.395   1_554  S
Zr2636     O3290   2.384   1_554  S
O2637      H2678   0.990       .  S
O2637      H2681   0.990       .  S
O2638     Zr3260   2.435       .  S
O2638      H2671   0.990       .  S
O2639     Zr3283   2.412   1_554  S
O2640     Zr2660   2.388       .  S
O2640      H2667   0.966       .  S
O2641     Zr3277   2.511       .  S
O2641      C2643   1.297   1_556  A
O2642     Zr2660   2.405       .  S
O2642      C2643   1.279       .  A
C2643      C3685   1.490   1_554  S
O2644     Zr2656   2.395       .  S
O2644      C2646   1.277       .  A
O2645     Zr2659   2.470       .  S
O2645      C2646   1.294       .  A
C2646      C3041   1.482       .  S
O2647     Zr2656   2.509       .  S
O2647      C2649   1.296       .  A
O2648     Zr3284   2.392       .  S
O2648      C2649   1.275       .  A
C2649      C3062   1.486       .  S
O2650     Zr3901   2.504   1_545  S
O2650      C2652   1.297   1_545  A
O2651     Zr2659   2.392       .  S
O2651      C3900   1.278       .  A
C2652      O3899   1.281       .  A
C2652      C3054   1.499   1_565  S
Zr2653     O3265   2.512       .  S
Zr2653     O3898   2.499       .  S
Zr2653     O2654   2.438       .  S
Zr2653     O4527   2.435       .  S
Zr2653     O2661   2.343       .  S
Zr2653     O2662   2.400       .  S
Zr2653     O3289   2.365       .  S
Zr2653     O3287   2.397       .  S
O2654      H2674   0.990       .  S
O2654      H3927   0.990       .  S
O2655     Zr4525   2.435   1_544  S
O2655      H2675   0.990       .  S
Zr2656     O2657   2.436       .  S
Zr2656     O2658   2.434       .  S
Zr2656     O2662   2.419       .  S
Zr2656     O2661   2.312       .  S
Zr2656     O2666   2.356       .  S
Zr2656     O2664   2.381       .  S
O2657      H2673   0.991       .  S
O2658      H2672   0.990       .  S
O2658      H2682   0.990       .  S
Zr2659     O3263   2.414       .  S
Zr2659     O2662   2.385       .  S
Zr2659     O2664   2.408       .  S
Zr2659     O3289   2.441       .  S
Zr2660     O3272   2.391   1_554  S
Zr2660     O3285   2.399   1_554  S
Zr2660     O2663   2.395       .  S
Zr2660     O3290   2.387   1_554  S
O2661     Zr3284   2.398       .  S
O2661      H2669   0.950       .  S
O2663     Zr3277   2.398   1_554  S
O2664     Zr3260   2.395       .  S
O2664      H2668   0.966       .  S
O2665     Zr3277   2.364   1_554  S
O2665     Zr3283   2.438   1_554  S
O2665      H2670   0.968       .  S
O2666     Zr3260   2.384       .  S
O2666     Zr3284   2.387       .  S
H2679      O3902   0.990       .  S
O2683      C2685   1.274       .  A
O2684      C2685   1.295       .  A
C2685      C3025   1.471       .  S
O2686     Zr2698   2.356       .  S
O2686      C2688   1.269       .  A
O2687     Zr2722   2.651       .  S
O2687      C2688   1.338       .  A
C2688      C3033   1.533       .  S
O2689      C2691   1.288       .  A
O2690      C2691   1.277       .  A
C2691      C3109   1.449       .  S
O2692     Zr2695   2.415       .  S
O2692      C2694   1.281       .  A
O2693     Zr2722   2.461       .  S
O2693      C2694   1.295       .  A
C2694      C3042   1.480       .  S
Zr2695     O2696   2.436       .  S
Zr2695     O2697   2.421       .  S
Zr2695     O2701   2.367       .  S
Zr2695     O2702   2.362       .  S
Zr2695     O2725   2.326       .  S
Zr2695     O2727   2.385       .  S
O2697      H2738   0.984       .  S
O2697      H2742   0.990       .  S
Zr2698     O2699   2.437       .  S
Zr2698     O2700   2.435       .  S
Zr2698     O2702   2.394       .  S
Zr2698     O2701   2.324       .  S
Zr2698     O2726   2.341       .  S
Zr2698     O2728   2.390       .  S
O2699      H2740   0.990       .  S
O2699      H2743   0.990       .  S
O2700      H2733   0.990       .  S
O2701     Zr2721   2.367       .  S
O2702     Zr2722   2.398       .  S
O2702      H2729   0.965       .  S
O2703     Zr2715   2.340       .  S
O2703      C2705   1.266       .  A
O2704     Zr2722   2.647       .  S
O2704      C2705   1.336       .  A
C2705      C4285   1.537       .  S
O2706     Zr2718   2.386       .  S
O2706      C2708   1.276       .  A
O2707     Zr2721   2.472       .  S
O2707      C2708   1.294       .  A
C2708      C3046   1.471       .  S
O2709     Zr2718   2.457       .  S
O2709      C2711   1.291       .  A
O2710     Zr2722   2.399       .  S
O2710      C2711   1.286       .  A
C2711      C3106   1.470       .  S
O2712     Zr3963   2.500   1_545  S
O2712      C2714   1.295   1_545  A
O2713     Zr2721   2.377       .  S
O2713      C3962   1.279       .  A
C2714      O3961   1.282       .  A
C2714      C3029   1.488   1_665  S
Zr2715     O3960   2.501       .  S
Zr2715     O2716   2.436       .  S
Zr2715     O3965   2.434       .  S
Zr2715     O2723   2.402       .  S
Zr2715     O2724   2.315       .  S
Zr2715     O2727   2.356       .  S
Zr2715     O2725   2.412       .  S
O2716      H2736   0.990       .  S
O2716      H3989   0.990       .  S
O2717     Zr3963   2.434   1_545  S
O2717      H2737   0.990       .  S
Zr2718     O2719   2.434       .  S
Zr2718     O2720   2.435       .  S
Zr2718     O2724   2.381       .  S
Zr2718     O2723   2.359       .  S
Zr2718     O2728   2.330       .  S
Zr2718     O2726   2.397       .  S
O2719      H2735   0.990       .  S
O2720      H2734   0.990       .  S
O2720      H2744   0.990       .  S
Zr2721     O2724   2.369       .  S
Zr2721     O2726   2.382       .  S
Zr2721     O2727   2.375       .  S
Zr2722     O2723   2.411       .  S
Zr2722     O2725   2.387       .  S
Zr2722     O2728   2.386       .  S
O2723      H2731   0.965       .  S
O2726      H2730   0.966       .  S
O2727      H2732   0.964       .  S
H2741      O3964   0.990   1_545  S
O2745     Zr2757   2.618       .  S
O2745      C2747   1.320       .  A
O2746     Zr2783   2.316       .  S
O2746      C2747   1.257       .  A
C2747      C3101   1.515       .  S
O2748     Zr3384   2.390       .  S
O2748      C2750   1.278       .  A
O2749     Zr3408   2.404       .  S
O2749      C2750   1.279       .  A
C2750      C3010   1.455       .  S
O2751     Zr3384   2.385       .  S
O2751      C3377   1.259       .  A
O2752     Zr2783   2.539       .  S
O2752      C2753   1.302       .  A
C2753      O3375   1.259   1_554  A
C2753      C3690   1.491       .  S
O2754     Zr2757   2.481       .  S
O2754      C2756   1.297       .  A
O2755     Zr2784   2.415       .  S
O2755      C2756   1.286       .  A
C2756      C3058   1.482       .  S
Zr2757     O2758   2.429       .  S
Zr2757     O2759   2.435       .  S
Zr2757     O2763   2.338       .  S
Zr2757     O2764   2.416       .  S
Zr2757     O2787   2.424       .  S
Zr2757     O2789   2.338       .  S
O2758      H2801   0.990       .  S
O2759      H2800   0.990       .  S
O2759      H2804   0.990       .  S
Zr2760     O3372   2.397       .  S
Zr2760     O3375   2.383       .  S
Zr2760     O3385   2.443       .  S
Zr2760     O3386   2.436       .  S
Zr2760     O2764   2.357   1_556  S
Zr2760     O2763   2.389   1_556  S
Zr2760     O2788   2.377   1_556  S
Zr2760     O2790   2.359   1_556  S
O2761     Zr3384   2.443       .  S
O2761      H2802   0.988       .  S
O2761      H2805   0.989       .  S
O2762     Zr3384   2.436       .  S
O2762      H2795   0.990       .  S
O2763     Zr2783   2.382       .  S
O2764     Zr2784   2.389       .  S
O2764      H2791   0.964       .  S
O2765     Zr2777   2.495       .  S
O2765      C2767   1.292       .  A
O2766     Zr2784   2.401       .  S
O2766      C2767   1.277       .  A
C2767      C3017   1.488       .  S
O2768     Zr2780   2.504       .  S
O2768      C2770   1.294       .  A
O2769     Zr2783   2.366       .  S
O2769      C2770   1.266       .  A
C2770      C3022   1.468       .  S
O2771     Zr2780   2.504       .  S
O2771      C2773   1.298       .  A
O2772     Zr2784   2.415       .  S
O2772      C2773   1.280       .  A
C2773      C3018   1.487       .  S
O2774     Zr2777   2.384       .  S
O2774      C2776   1.278       .  A
O2775     Zr2783   2.462       .  S
O2775      C2776   1.293       .  A
C2776      C3014   1.474       .  S
Zr2777     O2778   2.436       .  S
Zr2777     O2779   2.434       .  S
Zr2777     O2785   2.298       .  S
Zr2777     O2786   2.417       .  S
Zr2777     O2789   2.369       .  S
Zr2777     O2787   2.365       .  S
O2778      H2798   0.990       .  S
O2778      H2803   0.990       .  S
O2779      H2799   0.990       .  S
Zr2780     O2781   2.433       .  S
Zr2780     O2782   2.435   1_554  S
Zr2780     O2786   2.403       .  S
Zr2780     O2785   2.346       .  S
Zr2780     O2790   2.393       .  S
Zr2780     O2788   2.359       .  S
O2781      H2797   0.990       .  S
O2782      H3420   0.990       .  S
O2782      H2806   0.990       .  S
Zr2783     O2786   2.380       .  S
Zr2783     O2788   2.397       .  S
Zr2783     O2789   2.385       .  S
Zr2784     O3373   2.408   1_554  S
Zr2784     O2785   2.382       .  S
Zr2784     O2787   2.393       .  S
Zr2784     O2790   2.385       .  S
O2785      H2793   0.950       .  S
O2788      H2792   0.959       .  S
O2789      H2794   0.965       .  S
H2796      O3406   0.990       .  S
O2807     Zr2819   2.494       .  S
O2807      C2809   1.294       .  A
O2808     Zr2845   2.376       .  S
O2808      C2809   1.275       .  A
C2809      C3070   1.473       .  S
O2810     Zr2822   2.411       .  S
O2810      C2812   1.280       .  A
O2811     Zr2846   2.431       .  S
O2811      C2812   1.289       .  A
C2812      C3013   1.466       .  S
O2813     Zr2822   2.384       .  S
O2813      C2815   1.280       .  A
O2814     Zr2845   2.457       .  S
O2814      C2815   1.290       .  A
C2815      C3097   1.475       .  S
O2816     Zr2819   2.310       .  S
O2816      C2818   1.262       .  A
O2817     Zr2846   2.679       .  S
O2817      C2818   1.342       .  A
C2818      C3034   1.539       .  S
Zr2819     O2820   2.433       .  S
Zr2819     O2821   2.436       .  S
Zr2819     O2825   2.331       .  S
Zr2819     O2826   2.422       .  S
Zr2819     O2849   2.407       .  S
Zr2819     O2851   2.310       .  S
O2820      H2863   0.990       .  S
O2821      H2862   0.990       .  S
O2821      H2866   0.990       .  S
Zr2822     O2823   2.414       .  S
Zr2822     O2824   2.430       .  S
Zr2822     O2826   2.338       .  S
Zr2822     O2825   2.384       .  S
Zr2822     O2850   2.332       .  S
Zr2822     O2852   2.341       .  S
O2823      H2864   0.990       .  S
O2823      H2867   0.989       .  S
O2824      H2857   0.990       .  S
O2825     Zr2845   2.355       .  S
O2826     Zr2846   2.404       .  S
O2826      H2853   0.964       .  S
O2827     Zr2839   2.523       .  S
O2827      C2829   1.306       .  A
O2828     Zr2846   2.418       .  S
O2828      C2829   1.283       .  A
C2829      C3001   1.504       .  S
O2830     Zr2842   2.522       .  S
O2830      C2832   1.302       .  A
O2831     Zr2845   2.353       .  S
O2831      C2832   1.272       .  A
C2832      C3006   1.477       .  S
O2833     Zr2842   2.382       .  S
O2833      C2835   1.276       .  A
O2834     Zr2846   2.645       .  S
O2834      C2835   1.336       .  A
C2835      C3038   1.532       .  S
O2836     Zr2839   2.407       .  S
O2836      C2838   1.284       .  A
O2837     Zr2845   2.410       .  S
O2837      C2838   1.285       .  A
C2838      C3009   1.445       .  S
Zr2839     O2840   2.437       .  S
Zr2839     O2841   2.434       .  S
Zr2839     O2847   2.317       .  S
Zr2839     O2848   2.416       .  S
Zr2839     O2851   2.392       .  S
Zr2839     O2849   2.349       .  S
O2840      H2860   0.990       .  S
O2840      H2865   0.990       .  S
O2841      H2861   0.990       .  S
Zr2842     O2843   2.434       .  S
Zr2842     O2844   2.438       .  S
Zr2842     O2848   2.347       .  S
Zr2842     O2847   2.428       .  S
Zr2842     O2852   2.396       .  S
Zr2842     O2850   2.335       .  S
O2843      H2859   0.990       .  S
O2844      H2858   0.990       .  S
O2844      H2868   0.990       .  S
Zr2845     O2848   2.389       .  S
Zr2845     O2850   2.368       .  S
Zr2845     O2851   2.378       .  S
Zr2846     O2847   2.413       .  S
Zr2846     O2849   2.403       .  S
Zr2846     O2852   2.402       .  S
O2847      H2855   0.964       .  S
O2850      H2854   0.963       .  S
O2851      H2856   0.965       .  S
O2869     Zr4129   2.401       .  S
O2869      C2871   1.268       .  A
O2870     Zr4155   2.505       .  S
O2870      C2871   1.292       .  A
C2871      C3050   1.486       .  S
O2872     Zr2884   2.386       .  S
O2872      C2874   1.278       .  A
O2873     Zr2908   2.499       .  S
O2873      C2874   1.302       .  A
C2874      C3021   1.479       .  S
O2875     Zr2884   2.447       .  S
O2875      C4125   1.288   1_545  A
O2876     Zr4155   2.379       .  S
O2876      C2877   1.278       .  A
C2877      O4123   1.287       .  A
C2877      C3117   1.451       .  S
O2878     Zr2881   2.389       .  S
O2878      C2880   1.277       .  A
O2879     Zr2908   2.433       .  S
O2879      C2880   1.287       .  A
C2880      C2998   1.464   1_554  S
Zr2881     O4117   2.401       .  S
Zr2881     O2882   2.438       .  S
Zr2881     O2883   2.443       .  S
Zr2881     O2887   2.366       .  S
Zr2881     O2888   2.352       .  S
Zr2881     O2911   2.368       .  S
Zr2881     O2913   2.358       .  S
O2882      H4173   0.990       .  S
O2883      H2928   0.990       .  S
Zr2884     O2885   2.437       .  S
Zr2884     O2886   2.435       .  S
Zr2884     O2888   2.400       .  S
Zr2884     O2887   2.328       .  S
Zr2884     O2912   2.359       .  S
Zr2884     O2914   2.363       .  S
O2885      H2926   0.990       .  S
O2885      H2929   0.990       .  S
O2886      H2919   0.990       .  S
O2887     Zr2907   2.336       .  S
O2888     Zr2908   2.377       .  S
O2888      H2915   0.963       .  S
O2889     Zr2901   2.420       .  S
O2889      C2891   1.285       .  A
O2890     Zr2908   2.475       .  S
O2890      C2891   1.299       .  A
C2891      C3113   1.472       .  S
O2892     Zr2904   2.498       .  S
O2892      C2894   1.300       .  A
O2893     Zr2907   2.408       .  S
O2893      C2894   1.283       .  A
C2894      C2993   1.476       .  S
O2895     Zr2904   2.549       .  S
O2895      C2897   1.312       .  A
O2896     Zr2908   2.424       .  S
O2896      C2897   1.284       .  A
C2897      C3102   1.514       .  S
O2899     Zr2907   2.384       .  S
O2899      C2900   1.283       .  A
Zr2901     O2902   2.437       .  S
Zr2901     O2909   2.421       .  S
Zr2901     O2910   2.344       .  S
Zr2901     O2913   2.370       .  S
Zr2901     O2911   2.399       .  S
O2902      H2922   0.990       .  S
O2903      H2923   0.990       .  S
Zr2904     O2905   2.432       .  S
Zr2904     O2906   2.431       .  S
Zr2904     O2910   2.379       .  S
Zr2904     O2909   2.335       .  S
Zr2904     O2914   2.363       .  S
Zr2904     O2912   2.376       .  S
O2905      H2921   0.990       .  S
O2906      H2920   0.990       .  S
O2906      H2930   0.990       .  S
Zr2907     O4118   2.504   1_545  S
Zr2907     O4124   2.376       .  S
Zr2907     O2910   2.371       .  S
Zr2907     O2912   2.399       .  S
Zr2907     O2913   2.382       .  S
Zr2908     O2909   2.409       .  S
Zr2908     O2911   2.403       .  S
Zr2908     O2914   2.393       .  S
O2909      H2917   0.963       .  S
O2912      H2916   0.965       .  S
O2913      H2918   0.965       .  S
H2925      O4130   0.990       .  S
O2931     Zr4191   2.410       .  S
O2931      C2933   1.276       .  A
O2932     Zr4217   2.500       .  S
O2932      C2933   1.296       .  A
C2933      C3026   1.503       .  S
O2934     Zr2946   2.354       .  S
O2934      C2936   1.273       .  A
O2935     Zr2970   2.529       .  S
O2935      C2936   1.308       .  A
C2936      C3005   1.482       .  S
O2937     Zr4194   2.433       .  S
O2937      C2939   1.285       .  A
O2938     Zr4217   2.366       .  S
O2938      C2939   1.278       .  A
C2939      C3086   1.431       .  S
O2940     Zr2943   2.482       .  S
O2940      C2942   1.294       .  A
O2941     Zr2970   2.408       .  S
O2941      C2942   1.281       .  A
C2942      C2994   1.481       .  S
Zr2943     O4179   2.409   1_545  S
Zr2943     O2944   2.429       .  S
Zr2943     O2945   2.430       .  S
Zr2943     O2949   2.377       .  S
Zr2943     O2950   2.347       .  S
Zr2943     O2973   2.338       .  S
Zr2943     O2975   2.420       .  S
O2944      H4235   0.990       .  S
O2945      H2990   0.990       .  S
Zr2946     O4185   2.440       .  S
Zr2946     O2947   2.435       .  S
Zr2946     O2948   2.436       .  S
Zr2946     O2950   2.383       .  S
Zr2946     O2949   2.307       .  S
Zr2946     O2974   2.342       .  S
Zr2946     O2976   2.369       .  S
O2947      H2988   0.990       .  S
O2947      H2991   0.990       .  S
O2948      H2981   0.990       .  S
O2949     Zr2969   2.358       .  S
O2950     Zr2970   2.381       .  S
O2950      H2977   0.962       .  S
O2951     Zr2963   2.369       .  S
O2951      C2953   1.264       .  A
O2952     Zr2970   2.577       .  S
O2952      C2953   1.313       .  A
O2954     Zr2966   2.373       .  S
O2954      C2956   1.276       .  A
O2955     Zr2969   2.472       .  S
O2955      C2956   1.295       .  A
C2956      C2997   1.468       .  S
O2957     Zr2966   2.407       .  S
O2957      C2959   1.284       .  A
O2958     Zr2970   2.342       .  S
O2958      C2959   1.270       .  A
C2959      C3082   1.416       .  S
O2960      C2962   1.296       .  A
O2961     Zr2969   2.416       .  S
C2962      C3053   1.487       .  S
Zr2963     O2964   2.438       .  S
Zr2963     O2971   2.414       .  S
Zr2963     O2972   2.326       .  S
Zr2963     O2975   2.363       .  S
Zr2963     O2973   2.408       .  S
O2964      H2984   0.990       .  S
O2965      H2985   0.990       .  S
Zr2966     O2967   2.434       .  S
Zr2966     O2968   2.437       .  S
Zr2966     O2972   2.370       .  S
Zr2966     O2971   2.341       .  S
Zr2966     O2976   2.334       .  S
Zr2966     O2974   2.342       .  S
O2967      H2983   0.990       .  S
O2968      H2982   0.990       .  S
O2968      H2992   0.990       .  S
Zr2969     O4180   2.508   1_545  S
Zr2969     O4186   2.361       .  S
Zr2969     O2972   2.358       .  S
Zr2969     O2974   2.393       .  S
Zr2969     O2975   2.398       .  S
Zr2970     O2971   2.404       .  S
Zr2970     O2973   2.383       .  S
Zr2970     O2976   2.408       .  S
O2971      H2979   0.965       .  S
O2974      H2978   0.965       .  S
H2987      O4192   0.990       .  S
C2993      C2994   1.346       .  D
C2993      H2995   1.087       .  S
C2994      H2996   1.087       .  S
C2997      C3622   1.360       .  D
C2997      H2999   1.086       .  S
C2998      C3621   1.355       .  D
C2998      H3000   1.086       .  S
C3001      C3002   1.379       .  D
C3001      H3003   1.086       .  S
C3002      H3004   1.085       .  S
C3005      C3006   1.372       .  D
C3005      H3007   1.087       .  S
C3006      H3008   1.086       .  S
C3009      C3010   1.344       .  D
C3009      H3011   1.087       .  S
C3010      H3012   1.087       .  S
C3013      C3014   1.357       .  D
C3013      H3015   1.087       .  S
C3014      H3016   1.087       .  S
C3017      C3018   1.366       .  D
C3017      H3019   1.085       .  S
C3018      H3020   1.085       .  S
C3021      C3022   1.362       .  D
C3021      H3023   1.081       .  S
C3022      H3024   1.086       .  S
C3025      C3026   1.361       .  D
C3025      H3027   1.086       .  S
C3026      H3028   1.083       .  S
C3029      C3030   1.358   1_455  D
C3029      H3031   1.088       .  S
C3033      C3034   1.415       .  D
C3033      H3035   1.085       .  S
C3034      H3036   1.085       .  S
C3037      C3953   1.536   1_545  S
C3037      C3038   1.409       .  D
C3037      H4287   1.085       .  S
C3038      H3040   1.085       .  S
H3039      C4285   1.085       .  S
C3041      C3042   1.362       .  D
C3041      H3043   1.086       .  S
C3042      H3044   1.086       .  S
C3045      C3046   1.355       .  D
C3045      H3047   1.086       .  S
C3046      H3048   1.086       .  S
C3049      C3050   1.361       .  D
C3049      H3051   1.085       .  S
C3050      H3052   1.080       .  S
C3053      C3054   1.356       .  D
C3053      H3055   1.088   1_545  S
C3054      H4304   1.085       .  S
H3056      C4302   1.087       .  S
C3057      C3058   1.343       .  D
C3057      H3059   1.087       .  S
C3058      H3060   1.087       .  S
C3061      C3267   1.490       .  S
C3061      C3062   1.367       .  D
C3061      H3063   1.085       .  S
C3062      H3064   1.085       .  S
C3065      C3066   1.372       .  D
C3065      H3067   1.084       .  S
C3066      C3377   1.491       .  S
C3066      H3068   1.086       .  S
C3069      C3070   1.345       .  D
C3069      H3071   1.086       .  S
C3070      H3072   1.088       .  S
C3073      C3074   1.367       .  D
C3073      H3075   1.085       .  S
C3074      C3191   1.487       .  S
C3074      H3076   1.085       .  S
C3077      C3078   1.355       .  D
C3077      H3079   1.086       .  S
C3078      H3080   1.087       .  S
C3081      C3082   1.331       .  D
C3081      H3083   1.089       .  S
C3082      H3084   1.087       .  S
C3085      C3086   1.329       .  D
C3085      H3087   1.081       .  S
C3086      H3088   1.086       .  S
C3089      C3090   1.356       .  D
C3089      H3091   1.086       .  S
C3090      H3092   1.086       .  S
C3093      C3094   1.355       .  D
C3093      H3095   1.083       .  S
C3094      H3096   1.085       .  S
C3097      C3098   1.349       .  D
C3097      H3099   1.087       .  S
C3098      H3100   1.087       .  S
C3101      C3102   1.382       .  D
C3101      H3103   1.085       .  S
C3102      H3104   1.088       .  S
C3105      C3106   1.345       .  D
C3105      H3107   1.087       .  S
C3106      H3108   1.087       .  S
C3109      C3110   1.335       .  D
C3109      H3111   1.089       .  S
C3110      H3112   1.086       .  S
C3113      C3114   1.363       .  D
C3113      H3115   1.086       .  S
C3114      H3116   1.086       .  S
C3117      C3118   1.337       .  D
C3117      H3119   1.088       .  S
C3118      H3120   1.087       .  S
O3121     Zr3133   2.425       .  S
O3121      C3123   1.288       .  A
O3122     Zr3159   2.408       .  S
O3122      C3123   1.282       .  A
C3123      C3742   1.466       .  S
O3124     Zr3136   2.462       .  S
O3124      C3126   1.292       .  A
O3125     Zr3160   2.459       .  S
O3125      C3126   1.292       .  A
C3126      C3713   1.485       .  S
O3127     Zr3136   2.455       .  S
O3127      C3129   1.290       .  A
O3128     Zr3159   2.407       .  S
O3128      C3129   1.286       .  A
C3129      C3729   1.469       .  S
O3130     Zr3133   2.433       .  S
O3130      C3132   1.289       .  A
O3131     Zr3160   2.408       .  S
O3131      C3132   1.281       .  A
C3132      C3734   1.468       .  S
Zr3133     O3134   2.434       .  S
Zr3133     O3135   2.436       .  S
Zr3133     O3139   2.369       .  S
Zr3133     O3140   2.357       .  S
Zr3133     O3163   2.375       .  S
Zr3133     O3165   2.371       .  S
O3134      H3177   0.990       .  S
O3135      H3176   0.990       .  S
O3135      H3180   0.990       .  S
Zr3136     O3137   2.434       .  S
Zr3136     O3138   2.436       .  S
Zr3136     O3140   2.376       .  S
Zr3136     O3139   2.370       .  S
Zr3136     O3164   2.372       .  S
Zr3136     O3166   2.370       .  S
O3137      H3178   0.990       .  S
O3137      H3181   0.990       .  S
O3138      H3171   0.990       .  S
O3139     Zr3159   2.383       .  S
O3140     Zr3160   2.395       .  S
O3140      H3167   0.966       .  S
O3141     Zr3153   2.391       .  S
O3141      C3143   1.276       .  A
O3142     Zr3160   2.483       .  S
O3142      C3143   1.298       .  A
C3143      C3738   1.482       .  S
O3144     Zr3156   2.463       .  S
O3144      C3146   1.291       .  A
O3145     Zr3159   2.431       .  S
O3145      C3146   1.282       .  A
C3146      C3718   1.479       .  S
O3147     Zr3156   2.471       .  S
O3147      C3149   1.294       .  A
O3148     Zr3160   2.392       .  S
O3148      C3149   1.278       .  A
C3149      C3722   1.464       .  S
O3150     Zr3153   2.455       .  S
O3150      C3152   1.287       .  A
O3151     Zr3159   2.425       .  S
O3151      C3152   1.281       .  A
C3152      C3717   1.477       .  S
Zr3153     O3154   2.439       .  S
Zr3153     O3155   2.437       .  S
Zr3153     O3161   2.417       .  S
Zr3153     O3162   2.336       .  S
Zr3153     O3165   2.364       .  S
Zr3153     O3163   2.371       .  S
O3154      H3174   0.990       .  S
O3154      H3179   0.990       .  S
O3155      H3175   0.990       .  S
Zr3156     O3157   2.418       .  S
Zr3156     O3158   2.432       .  S
Zr3156     O3162   2.351       .  S
Zr3156     O3161   2.382       .  S
Zr3156     O3166   2.357       .  S
Zr3156     O3164   2.365       .  S
O3157      H3173   0.990       .  S
O3158      H3172   0.989       .  S
O3158      H3182   0.989       .  S
Zr3159     O3162   2.361       .  S
Zr3159     O3164   2.387       .  S
Zr3159     O3165   2.391       .  S
Zr3160     O3161   2.394       .  S
Zr3160     O3163   2.390       .  S
Zr3160     O3166   2.390       .  S
O3161      H3169   0.965       .  S
O3164      H3168   0.963       .  S
O3165      H3170   0.966       .  S
O3183     Zr3195   2.402       .  S
O3183      C3185   1.280       .  A
O3184     Zr3221   2.449       .  S
O3184      C3185   1.291       .  A
C3185      C3702   1.472       .  S
O3186     Zr3198   2.407       .  S
O3186      C3188   1.281       .  A
O3187     Zr3222   2.507       .  S
O3187      C3188   1.306       .  A
C3188      C3689   1.491       .  S
O3189      C3191   1.296       .  A
O3190     Zr3221   2.403   1_554  S
O3192     Zr3195   2.393       .  S
O3192      C3194   1.273       .  A
O3193     Zr3222   2.387       .  S
O3193      C3194   1.272       .  A
C3194      C3705   1.432       .  S
Zr3195     O3196   2.435       .  S
Zr3195     O3197   2.436       .  S
Zr3195     O3201   2.374       .  S
Zr3195     O3202   2.374       .  S
Zr3195     O3225   2.369       .  S
Zr3195     O3227   2.366       .  S
O3196      H3239   0.990       .  S
O3197      H3238   0.990       .  S
O3197      H3242   0.990       .  S
Zr3198     O3199   2.434   1_556  S
Zr3198     O3200   2.427   1_556  S
Zr3198     O3202   2.370       .  S
Zr3198     O3201   2.367       .  S
Zr3198     O3226   2.305       .  S
Zr3198     O3228   2.425       .  S
O3199      H3240   0.990       .  S
O3201     Zr3221   2.377       .  S
O3202     Zr3222   2.404       .  S
O3202      H3229   0.964       .  S
O3203     Zr3215   2.435       .  S
O3203      C3205   1.287       .  A
O3204     Zr3222   2.478       .  S
O3204      C3205   1.298       .  A
C3205      C3714   1.498       .  S
O3206     Zr3218   2.502       .  S
O3206      C3208   1.297       .  A
O3207     Zr3221   2.409       .  S
O3207      C3208   1.280       .  A
C3208      C3697   1.487   1_556  S
O3209     Zr3218   2.468       .  S
O3209      C3211   1.291       .  A
O3210     Zr3222   2.432       .  S
O3210      C3211   1.291       .  A
C3211      C3693   1.485       .  S
O3212     Zr3215   2.394       .  S
O3212      C3214   1.277       .  A
O3213     Zr3221   2.397       .  S
O3213      C3214   1.284       .  A
C3214      C3709   1.444       .  S
Zr3215     O3216   2.437       .  S
Zr3215     O3217   2.436       .  S
Zr3215     O3223   2.364       .  S
Zr3215     O3224   2.379       .  S
Zr3215     O3227   2.380       .  S
Zr3215     O3225   2.341       .  S
O3216      H3236   0.990       .  S
O3216      H3241   0.990       .  S
O3217      H3237   0.990       .  S
Zr3218     O3219   2.434       .  S
Zr3218     O3220   2.436       .  S
Zr3218     O3224   2.380       .  S
Zr3218     O3223   2.354       .  S
Zr3218     O3228   2.411       .  S
Zr3218     O3226   2.322       .  S
O3219      H3235   0.990       .  S
O3220      H3234   0.990       .  S
O3220      H3244   0.990       .  S
Zr3221     O3224   2.392       .  S
Zr3221     O3226   2.379       .  S
Zr3221     O3227   2.379       .  S
Zr3222     O3223   2.381       .  S
Zr3222     O3225   2.381       .  S
Zr3222     O3228   2.388       .  S
O3223      H3231   0.965       .  S
O3226      H3230   0.948       .  S
O3227      H3232   0.966       .  S
O3245      C3247   1.244       .  A
O3246      C3247   1.276       .  A
C3247      C3673   1.481       .  S
O3248     Zr3260   2.463       .  S
O3248      C3250   1.294       .  A
O3249     Zr3284   2.419       .  S
O3249      C3250   1.285       .  A
C3250      C3681   1.483       .  S
O3251      C3253   1.294       .  A
O3252      C3253   1.278       .  A
C3253      C3701   1.473       .  S
O3254     Zr3257   2.394       .  S
O3254      C3256   1.270       .  A
O3255     Zr3284   2.419       .  S
O3255      C3256   1.280       .  A
C3256      C3669   1.461       .  S
Zr3257     O3258   2.436       .  S
Zr3257     O3259   2.437       .  S
Zr3257     O3263   2.387       .  S
Zr3257     O3264   2.377       .  S
Zr3257     O3287   2.375       .  S
Zr3257     O3289   2.422       .  S
O3259      H3300   0.987       .  S
O3259      H3304   0.990       .  S
Zr3260     O3261   2.436       .  S
Zr3260     O3264   2.392       .  S
Zr3260     O3263   2.361       .  S
O3261      H3302   0.990       .  S
O3261      H3305   0.990       .  S
O3262      H3295   0.990       .  S
O3264     Zr3284   2.389       .  S
O3264      H3291   0.966       .  S
O3265      C3267   1.297       .  A
O3266     Zr3284   2.405       .  S
O3266      C3267   1.279       .  A
O3268     Zr3280   2.396       .  S
O3268      C3270   1.278       .  A
O3269     Zr3283   2.473       .  S
O3269      C3270   1.294       .  A
C3270      C3665   1.483       .  S
O3271     Zr3280   2.509       .  S
O3271      C3273   1.296       .  A
O3272      C3273   1.275       .  A
C3273      C3686   1.485       .  S
O3274     Zr4525   2.499       .  S
O3274      C3276   1.296       .  A
O3275     Zr3283   2.389       .  S
O3275      C4524   1.277       .  A
C3276      O4523   1.276       .  A
C3276      C3678   1.479   1_565  S
Zr3277     O4522   2.503       .  S
Zr3277     O3278   2.438       .  S
Zr3277     O3903   2.435   1_556  S
Zr3277     O3285   2.344       .  S
Zr3277     O3286   2.400       .  S
O3278      H3298   0.990       .  S
O3278      H4551   0.990       .  S
O3279     Zr3901   2.436   1_545  S
O3279      H3299   0.990       .  S
Zr3280     O3281   2.436       .  S
Zr3280     O3282   2.434       .  S
Zr3280     O3286   2.420       .  S
Zr3280     O3285   2.312       .  S
Zr3280     O3290   2.357       .  S
Zr3280     O3288   2.381       .  S
O3281      H3297   0.991       .  S
O3282      H3296   0.990       .  S
O3282      H3306   0.990       .  S
Zr3283     O3286   2.385       .  S
Zr3283     O3288   2.408       .  S
Zr3284     O3287   2.395       .  S
O3285      H3293   0.950       .  S
O3288      H3292   0.966       .  S
O3289      H3294   0.969       .  S
H3303      O4526   0.990       .  S
O3307      C3309   1.261       .  A
O3308      C3309   1.292       .  A
C3309      C3649   1.494       .  S
O3310     Zr3322   2.358       .  S
O3310      C3312   1.270       .  A
O3311     Zr3346   2.650       .  S
O3311      C3312   1.337       .  A
C3312      C3657   1.534       .  S
O3313      C3315   1.289       .  A
O3314      C3315   1.277       .  A
C3315      C3733   1.451       .  S
O3316     Zr3319   2.416       .  S
O3316      C3318   1.281       .  A
O3317     Zr3346   2.463       .  S
O3317      C3318   1.295       .  A
C3318      C3666   1.481       .  S
Zr3319     O3320   2.436       .  S
Zr3319     O3321   2.420       .  S
Zr3319     O3325   2.366       .  S
Zr3319     O3326   2.362       .  S
Zr3319     O3349   2.326       .  S
Zr3319     O3351   2.387       .  S
O3321      H3362   0.984       .  S
O3321      H3366   0.990       .  S
Zr3322     O3323   2.437       .  S
Zr3322     O3324   2.435       .  S
Zr3322     O3326   2.393       .  S
Zr3322     O3325   2.326       .  S
Zr3322     O3350   2.341       .  S
Zr3322     O3352   2.389       .  S
O3323      H3364   0.990       .  S
O3323      H3367   0.990       .  S
O3324      H3357   0.990       .  S
O3325     Zr3345   2.367       .  S
O3326     Zr3346   2.397       .  S
O3326      H3353   0.965       .  S
O3327     Zr3339   2.337       .  S
O3327      C3329   1.266       .  A
O3328     Zr3346   2.646       .  S
O3328      C3329   1.335       .  A
C3329      C4909   1.535       .  S
O3330     Zr3342   2.385       .  S
O3330      C3332   1.276       .  A
O3331     Zr3345   2.473       .  S
O3331      C3332   1.294       .  A
C3332      C3670   1.472       .  S
O3333     Zr3342   2.456       .  S
O3333      C3335   1.291       .  A
O3334     Zr3346   2.399       .  S
O3334      C3335   1.286       .  A
C3335      C3730   1.470       .  S
O3336     Zr4587   2.494   1_545  S
O3336      C3338   1.294   1_545  A
O3337     Zr3345   2.375       .  S
O3337      C4586   1.279       .  A
C3338      O4585   1.286       .  A
C3338      C3653   1.490   1_665  S
Zr3339     O4584   2.498       .  S
Zr3339     O3340   2.436       .  S
Zr3339     O4589   2.433       .  S
Zr3339     O3347   2.402       .  S
Zr3339     O3348   2.315       .  S
Zr3339     O3351   2.356       .  S
Zr3339     O3349   2.412       .  S
O3340      H3360   0.990       .  S
O3340      H4613   0.990       .  S
O3341     Zr4587   2.437   1_545  S
O3341      H3361   0.990       .  S
Zr3342     O3343   2.434       .  S
Zr3342     O3344   2.435       .  S
Zr3342     O3348   2.379       .  S
Zr3342     O3347   2.358       .  S
Zr3342     O3352   2.330       .  S
Zr3342     O3350   2.396       .  S
O3343      H3359   0.990       .  S
O3344      H3358   0.990       .  S
O3344      H3368   0.990       .  S
Zr3345     O3348   2.368       .  S
Zr3345     O3350   2.382       .  S
Zr3345     O3351   2.375       .  S
Zr3346     O3347   2.410       .  S
Zr3346     O3349   2.387       .  S
Zr3346     O3352   2.386       .  S
O3347      H3355   0.965       .  S
O3350      H3354   0.966       .  S
O3351      H3356   0.965       .  S
H3365      O4588   0.990   1_545  S
O3369     Zr3381   2.601       .  S
O3369      C3371   1.315       .  A
O3370     Zr3407   2.332       .  S
O3370      C3371   1.257       .  A
C3371      C3725   1.513       .  S
O3372      C3374   1.279       .  A
O3373      C3374   1.280       .  A
C3374      C3634   1.459       .  S
O3376     Zr3407   2.536       .  S
O3376      C3377   1.301       .  A
O3378     Zr3381   2.474       .  S
O3378      C3380   1.296       .  A
O3379     Zr3408   2.417       .  S
O3379      C3380   1.286       .  A
C3380      C3682   1.480       .  S
Zr3381     O3382   2.430       .  S
Zr3381     O3383   2.435       .  S
Zr3381     O3387   2.340       .  S
Zr3381     O3388   2.412       .  S
Zr3381     O3411   2.423       .  S
Zr3381     O3413   2.344       .  S
O3382      H3425   0.990       .  S
O3383      H3424   0.990       .  S
O3383      H3428   0.990       .  S
Zr3384     O3388   2.358       .  S
Zr3384     O3387   2.385       .  S
Zr3384     O3412   2.374       .  S
Zr3384     O3414   2.360       .  S
O3385      H3426   0.988       .  S
O3385      H3429   0.989       .  S
O3386      H3419   0.990       .  S
O3387     Zr3407   2.383       .  S
O3388     Zr3408   2.388       .  S
O3388      H3415   0.964       .  S
O3389     Zr3401   2.496       .  S
O3389      C3391   1.292       .  A
O3390     Zr3408   2.401       .  S
O3390      C3391   1.277       .  A
C3391      C3641   1.488       .  S
O3392     Zr3404   2.503       .  S
O3392      C3394   1.295       .  A
O3393     Zr3407   2.364       .  S
O3393      C3394   1.270       .  A
C3394      C3646   1.465       .  S
O3395     Zr3404   2.504       .  S
O3395      C3397   1.298       .  A
O3396     Zr3408   2.415       .  S
O3396      C3397   1.280       .  A
C3397      C3642   1.487       .  S
O3398     Zr3401   2.384       .  S
O3398      C3400   1.278       .  A
O3399     Zr3407   2.453       .  S
O3399      C3400   1.292       .  A
C3400      C3638   1.471       .  S
Zr3401     O3402   2.436       .  S
Zr3401     O3403   2.434       .  S
Zr3401     O3409   2.296       .  S
Zr3401     O3410   2.417       .  S
Zr3401     O3413   2.367       .  S
Zr3401     O3411   2.366       .  S
O3402      H3422   0.990       .  S
O3402      H3427   0.990       .  S
O3403      H3423   0.990       .  S
Zr3404     O3405   2.433       .  S
Zr3404     O3406   2.435       .  S
Zr3404     O3410   2.401       .  S
Zr3404     O3409   2.344       .  S
Zr3404     O3414   2.392       .  S
Zr3404     O3412   2.356       .  S
O3405      H3421   0.990       .  S
O3406      H3430   0.990       .  S
Zr3407     O3410   2.382       .  S
Zr3407     O3412   2.395       .  S
Zr3407     O3413   2.390       .  S
Zr3408     O3409   2.382       .  S
Zr3408     O3411   2.391       .  S
Zr3408     O3414   2.386       .  S
O3409      H3417   0.950       .  S
O3412      H3416   0.959       .  S
O3413      H3418   0.965       .  S
O3431     Zr3443   2.496       .  S
O3431      C3433   1.295       .  A
O3432     Zr3469   2.376       .  S
O3432      C3433   1.275       .  A
C3433      C3694   1.474       .  S
O3434     Zr3446   2.410       .  S
O3434      C3436   1.280       .  A
O3435     Zr3470   2.424       .  S
O3435      C3436   1.287       .  A
C3436      C3637   1.463       .  S
O3437     Zr3446   2.377       .  S
O3437      C3439   1.278       .  A
O3438     Zr3469   2.463       .  S
O3438      C3439   1.291       .  A
C3439      C3721   1.476       .  S
O3440     Zr3443   2.312       .  S
O3440      C3442   1.262       .  A
O3441     Zr3470   2.679       .  S
O3441      C3442   1.343       .  A
C3442      C3658   1.540       .  S
Zr3443     O3444   2.433       .  S
Zr3443     O3445   2.436       .  S
Zr3443     O3449   2.331       .  S
Zr3443     O3450   2.423       .  S
Zr3443     O3473   2.408       .  S
Zr3443     O3475   2.310       .  S
O3444      H3487   0.990       .  S
O3445      H3486   0.990       .  S
O3445      H3490   0.990       .  S
Zr3446     O3447   2.414       .  S
Zr3446     O3448   2.427       .  S
Zr3446     O3450   2.335       .  S
Zr3446     O3449   2.384       .  S
Zr3446     O3474   2.334       .  S
Zr3446     O3476   2.339       .  S
O3447      H3488   0.990       .  S
O3447      H3491   0.990       .  S
O3448      H3481   0.990       .  S
O3449     Zr3469   2.355       .  S
O3450     Zr3470   2.402       .  S
O3450      H3477   0.964       .  S
O3451     Zr3463   2.537       .  S
O3451      C3453   1.309       .  A
O3452     Zr3470   2.404       .  S
O3452      C3453   1.280       .  A
C3453      C3625   1.503       .  S
O3454     Zr3466   2.524       .  S
O3454      C3456   1.303       .  A
O3455     Zr3469   2.360       .  S
O3455      C3456   1.274       .  A
C3456      C3630   1.481       .  S
O3457     Zr3466   2.382       .  S
O3457      C3459   1.276       .  A
O3458     Zr3470   2.646       .  S
O3458      C3459   1.336       .  A
C3459      C3662   1.533       .  S
O3460     Zr3463   2.416       .  S
O3460      C3462   1.286       .  A
O3461     Zr3469   2.414       .  S
O3461      C3462   1.286       .  A
C3462      C3633   1.449       .  S
Zr3463     O3464   2.437       .  S
Zr3463     O3465   2.434       .  S
Zr3463     O3471   2.318       .  S
Zr3463     O3472   2.420       .  S
Zr3463     O3475   2.395       .  S
Zr3463     O3473   2.349       .  S
O3464      H3484   0.990       .  S
O3464      H3489   0.990       .  S
O3465      H3485   0.990       .  S
Zr3466     O3467   2.434       .  S
Zr3466     O3468   2.438       .  S
Zr3466     O3472   2.348       .  S
Zr3466     O3471   2.428       .  S
Zr3466     O3476   2.397       .  S
Zr3466     O3474   2.334       .  S
O3467      H3483   0.990       .  S
O3468      H3482   0.990       .  S
O3468      H3492   0.990       .  S
Zr3469     O3472   2.391       .  S
Zr3469     O3474   2.368       .  S
Zr3469     O3475   2.381       .  S
Zr3470     O3471   2.413       .  S
Zr3470     O3473   2.403       .  S
Zr3470     O3476   2.399       .  S
O3471      H3479   0.964       .  S
O3474      H3478   0.963       .  S
O3475      H3480   0.965       .  S
O3493     Zr4753   2.395       .  S
O3493      C3495   1.267       .  A
O3494     Zr4779   2.528       .  S
O3494      C3495   1.299       .  A
C3495      C3674   1.485       .  S
O3496     Zr3508   2.391       .  S
O3496      C3498   1.279       .  A
O3497     Zr3532   2.494       .  S
O3497      C3498   1.301       .  A
C3498      C3645   1.479       .  S
O3499     Zr3508   2.453       .  S
O3499      C4749   1.290   1_545  A
O3500     Zr4779   2.381       .  S
O3500      C3501   1.280       .  A
C3501      O4747   1.290       .  A
C3501      C3741   1.456       .  S
O3502     Zr3505   2.388       .  S
O3502      C3504   1.275       .  A
O3503     Zr3532   2.439       .  S
O3503      C3504   1.289       .  A
C3504      C3622   1.464       .  S
Zr3505     O4741   2.397       .  S
Zr3505     O3506   2.437       .  S
Zr3505     O3507   2.443       .  S
Zr3505     O3511   2.362       .  S
Zr3505     O3512   2.349       .  S
Zr3505     O3535   2.366       .  S
Zr3505     O3537   2.359       .  S
O3506      H4797   0.990       .  S
O3507      H3552   0.990       .  S
Zr3508     O3509   2.437       .  S
Zr3508     O3510   2.435       .  S
Zr3508     O3512   2.403       .  S
Zr3508     O3511   2.323       .  S
Zr3508     O3536   2.362       .  S
Zr3508     O3538   2.363       .  S
O3509      H3550   0.990       .  S
O3509      H3553   0.990       .  S
O3510      H3543   0.990       .  S
O3511     Zr3531   2.338       .  S
O3512     Zr3532   2.379       .  S
O3512      H3539   0.963       .  S
O3513     Zr3525   2.418       .  S
O3513      C3515   1.285       .  A
O3514     Zr3532   2.484       .  S
O3514      C3515   1.301       .  A
C3515      C3737   1.474       .  S
O3516     Zr3528   2.455       .  S
O3516      C3518   1.291       .  A
O3517     Zr3531   2.457       .  S
O3517      C3518   1.295       .  A
C3518      C3617   1.481       .  S
O3519     Zr3528   2.529       .  S
O3519      C3521   1.307       .  A
O3520     Zr3532   2.435       .  S
O3520      C3521   1.286       .  A
C3521      C3726   1.511       .  S
O3523     Zr3531   2.376       .  S
O3523      C3524   1.283       .  A
Zr3525     O3526   2.436       .  S
Zr3525     O3533   2.426       .  S
Zr3525     O3534   2.338       .  S
Zr3525     O3537   2.367       .  S
Zr3525     O3535   2.402       .  S
O3526      H3546   0.990       .  S
O3527      H3547   0.990       .  S
Zr3528     O3529   2.433       .  S
Zr3528     O3530   2.430       .  S
Zr3528     O3534   2.381       .  S
Zr3528     O3533   2.331       .  S
Zr3528     O3538   2.352       .  S
Zr3528     O3536   2.378       .  S
O3529      H3545   0.990       .  S
O3530      H3544   0.990       .  S
O3530      H3554   0.990       .  S
Zr3531     O4742   2.531   1_545  S
Zr3531     O4748   2.381       .  S
Zr3531     O3534   2.360       .  S
Zr3531     O3536   2.406       .  S
Zr3531     O3537   2.387       .  S
Zr3532     O3533   2.404       .  S
Zr3532     O3535   2.406       .  S
Zr3532     O3538   2.395       .  S
O3533      H3541   0.962       .  S
O3536      H3540   0.965       .  S
O3537      H3542   0.965       .  S
H3549      O4754   0.990       .  S
O3555     Zr4815   2.401       .  S
O3555      C3557   1.266       .  A
O3556     Zr4841   2.493       .  S
O3556      C3557   1.293       .  A
C3557      C3650   1.503       .  S
O3558     Zr3570   2.360       .  S
O3558      C3560   1.273       .  A
O3559     Zr3594   2.526       .  S
O3559      C3560   1.308       .  A
C3560      C3629   1.486       .  S
O3561     Zr4818   2.439       .  S
O3561      C3563   1.287       .  A
O3562     Zr4841   2.361       .  S
O3562      C3563   1.274       .  A
C3563      C3710   1.433       .  S
O3564     Zr3567   2.441       .  S
O3564      C3566   1.284       .  A
O3565     Zr3594   2.438       .  S
O3565      C3566   1.289       .  A
C3566      C3618   1.475       .  S
Zr3567     O4803   2.401   1_545  S
Zr3567     O3568   2.427       .  S
Zr3567     O3569   2.429       .  S
Zr3567     O3573   2.372       .  S
Zr3567     O3574   2.340       .  S
Zr3567     O3597   2.348       .  S
Zr3567     O3599   2.404       .  S
O3568      H4859   0.990       .  S
O3569      H3614   0.989       .  S
Zr3570     O4809   2.421       .  S
Zr3570     O3571   2.437       .  S
Zr3570     O3572   2.436       .  S
Zr3570     O3574   2.375       .  S
Zr3570     O3573   2.323       .  S
Zr3570     O3598   2.349       .  S
Zr3570     O3600   2.368       .  S
O3571      H3612   0.990       .  S
O3571      H3615   0.990       .  S
O3572      H3605   0.990       .  S
O3573     Zr3593   2.370       .  S
O3574     Zr3594   2.369       .  S
O3574      H3601   0.963       .  S
O3575     Zr3587   2.367       .  S
O3575      C3577   1.262       .  A
O3576     Zr3594   2.580       .  S
O3576      C3577   1.314       .  A
O3578     Zr3590   2.394       .  S
O3578      C3580   1.280       .  A
O3579     Zr3593   2.446       .  S
O3579      C3580   1.291       .  A
C3580      C3621   1.462       .  S
O3581     Zr3590   2.419       .  S
O3581      C3583   1.286       .  A
O3582     Zr3594   2.351       .  S
O3582      C3583   1.273       .  A
C3583      C3706   1.421       .  S
O3584      C3586   1.291       .  A
O3585     Zr3593   2.428       .  S
C3586      C3677   1.482       .  S
Zr3587     O3588   2.438       .  S
Zr3587     O3595   2.398       .  S
Zr3587     O3596   2.333       .  S
Zr3587     O3599   2.352       .  S
Zr3587     O3597   2.410       .  S
O3588      H3608   0.990       .  S
O3589      H3609   0.990       .  S
Zr3590     O3591   2.434       .  S
Zr3590     O3592   2.436       .  S
Zr3590     O3596   2.370       .  S
Zr3590     O3595   2.347       .  S
Zr3590     O3600   2.341       .  S
Zr3590     O3598   2.347       .  S
O3591      H3607   0.990       .  S
O3592      H3606   0.990       .  S
O3592      H3616   0.990       .  S
Zr3593     O4804   2.485   1_545  S
Zr3593     O4810   2.370       .  S
Zr3593     O3596   2.362       .  S
Zr3593     O3598   2.395       .  S
Zr3593     O3599   2.389       .  S
Zr3594     O3595   2.409       .  S
Zr3594     O3597   2.384       .  S
Zr3594     O3600   2.412       .  S
O3595      H3603   0.963       .  S
O3598      H3602   0.966       .  S
H3611      O4816   0.990       .  S
C3617      C3618   1.347       .  D
C3617      H3619   1.087       .  S
C3618      H3620   1.086       .  S
C3621      H3623   1.087       .  S
C3622      H3624   1.086       .  S
C3625      C3626   1.383       .  D
C3625      H3627   1.085       .  S
C3626      H3628   1.085       .  S
C3629      C3630   1.372       .  D
C3629      H3631   1.087       .  S
C3630      H3632   1.086       .  S
C3633      C3634   1.344       .  D
C3633      H3635   1.087       .  S
C3634      H3636   1.087       .  S
C3637      C3638   1.356       .  D
C3637      H3639   1.087       .  S
C3638      H3640   1.087       .  S
C3641      C3642   1.366       .  D
C3641      H3643   1.085       .  S
C3642      H3644   1.086       .  S
C3645      C3646   1.362       .  D
C3645      H3647   1.084       .  S
C3646      H3648   1.086       .  S
C3649      C3650   1.373       .  D
C3649      H3651   1.086       .  S
C3650      H3652   1.085       .  S
C3653      C3654   1.363   1_455  D
C3653      H3655   1.087       .  S
C3657      C3658   1.415       .  D
C3657      H3659   1.085       .  S
C3658      H3660   1.085       .  S
C3661      C4577   1.537   1_545  S
C3661      C3662   1.409       .  D
C3661      H4911   1.085       .  S
C3662      H3664   1.084       .  S
H3663      C4909   1.085       .  S
C3665      C3666   1.362       .  D
C3665      H3667   1.086       .  S
C3666      H3668   1.086       .  S
C3669      C3670   1.355       .  D
C3669      H3671   1.086       .  S
C3670      H3672   1.086       .  S
C3673      C3674   1.372       .  D
C3673      H3675   1.085       .  S
C3674      H3676   1.083       .  S
C3677      C3678   1.347       .  D
C3677      H3679   1.086       .  S
C3678      H4928   1.087       .  S
H3680      C4926   1.087       .  S
C3681      C3682   1.344       .  D
C3681      H3683   1.087       .  S
C3682      H3684   1.087       .  S
C3685      C3686   1.367       .  D
C3685      H3687   1.085       .  S
C3686      H3688   1.085       .  S
C3689      C3690   1.372   1_556  D
C3689      H3691   1.084       .  S
C3690      H3692   1.086       .  S
C3693      C3694   1.346       .  D
C3693      H3695   1.086       .  S
C3694      H3696   1.088       .  S
C3697      C3698   1.366       .  D
C3697      H3699   1.085       .  S
C3698      H3700   1.085       .  S
C3701      C3702   1.355       .  D
C3701      H3703   1.086       .  S
C3702      H3704   1.087       .  S
C3705      C3706   1.335       .  D
C3705      H3707   1.089       .  S
C3706      H3708   1.087       .  S
C3709      C3710   1.331       .  D
C3709      H3711   1.088       .  S
C3710      H3712   1.087       .  S
C3713      C3714   1.356       .  D
C3713      H3715   1.086       .  S
C3714      H3716   1.086       .  S
C3717      C3718   1.355       .  D
C3717      H3719   1.083       .  S
C3718      H3720   1.085       .  S
C3721      C3722   1.351       .  D
C3721      H3723   1.087       .  S
C3722      H3724   1.087       .  S
C3725      C3726   1.378       .  D
C3725      H3727   1.085       .  S
C3726      H3728   1.088       .  S
C3729      C3730   1.345       .  D
C3729      H3731   1.087       .  S
C3730      H3732   1.087       .  S
C3733      C3734   1.335       .  D
C3733      H3735   1.088       .  S
C3734      H3736   1.086       .  S
C3737      C3738   1.365       .  D
C3737      H3739   1.086       .  S
C3738      H3740   1.086       .  S
C3741      C3742   1.339       .  D
C3741      H3743   1.088       .  S
C3742      H3744   1.087       .  S
O3745     Zr3757   2.428       .  S
O3745      C3747   1.289       .  A
O3746     Zr3783   2.401       .  S
O3746      C3747   1.280       .  A
C3747      C4366   1.465       .  S
O3748     Zr3760   2.466       .  S
O3748      C3750   1.292       .  A
O3749     Zr3784   2.457       .  S
O3749      C3750   1.292       .  A
C3750      C4337   1.488       .  S
O3751     Zr3760   2.459       .  S
O3751      C3753   1.291       .  A
O3752     Zr3783   2.409       .  S
O3752      C3753   1.286       .  A
C3753      C4353   1.472       .  S
O3754     Zr3757   2.434       .  S
O3754      C3756   1.289       .  A
O3755     Zr3784   2.405       .  S
O3755      C3756   1.280       .  A
C3756      C4358   1.465       .  S
Zr3757     O3758   2.434       .  S
Zr3757     O3759   2.436       .  S
Zr3757     O3763   2.369       .  S
Zr3757     O3764   2.360       .  S
Zr3757     O3787   2.375       .  S
Zr3757     O3789   2.371       .  S
O3758      H3801   0.990       .  S
O3759      H3800   0.990       .  S
O3759      H3804   0.990       .  S
Zr3760     O3761   2.434       .  S
Zr3760     O3762   2.435       .  S
Zr3760     O3764   2.376       .  S
Zr3760     O3763   2.372       .  S
Zr3760     O3788   2.372       .  S
Zr3760     O3790   2.368       .  S
O3761      H3802   0.990       .  S
O3761      H3805   0.990       .  S
O3762      H3795   0.990       .  S
O3763     Zr3783   2.385       .  S
O3764     Zr3784   2.395       .  S
O3764      H3791   0.966       .  S
O3765     Zr3777   2.400       .  S
O3765      C3767   1.279       .  A
O3766     Zr3784   2.475       .  S
O3766      C3767   1.296       .  A
C3767      C4362   1.481       .  S
O3768     Zr3780   2.462       .  S
O3768      C3770   1.290       .  A
O3769     Zr3783   2.430       .  S
O3769      C3770   1.282       .  A
C3770      C4342   1.479       .  S
O3771     Zr3780   2.464       .  S
O3771      C3773   1.292       .  A
O3772     Zr3784   2.397       .  S
O3772      C3773   1.279       .  A
C3773      C4346   1.463       .  S
O3774     Zr3777   2.457       .  S
O3774      C3776   1.287       .  A
O3775     Zr3783   2.425       .  S
O3775      C3776   1.281       .  A
C3776      C4341   1.477       .  S
Zr3777     O3778   2.439       .  S
Zr3777     O3779   2.437       .  S
Zr3777     O3785   2.416       .  S
Zr3777     O3786   2.338       .  S
Zr3777     O3789   2.366       .  S
Zr3777     O3787   2.371       .  S
O3778      H3798   0.990       .  S
O3778      H3803   0.990       .  S
O3779      H3799   0.990       .  S
Zr3780     O3781   2.414       .  S
Zr3780     O3782   2.431       .  S
Zr3780     O3786   2.348       .  S
Zr3780     O3785   2.384       .  S
Zr3780     O3790   2.356       .  S
Zr3780     O3788   2.363       .  S
O3781      H3797   0.990       .  S
O3782      H3796   0.989       .  S
O3782      H3806   0.989       .  S
Zr3783     O3786   2.361       .  S
Zr3783     O3788   2.385       .  S
Zr3783     O3789   2.392       .  S
Zr3784     O3785   2.394       .  S
Zr3784     O3787   2.390       .  S
Zr3784     O3790   2.387       .  S
O3785      H3793   0.965       .  S
O3788      H3792   0.963       .  S
O3789      H3794   0.966       .  S
O3807     Zr3819   2.394       .  S
O3807      C3809   1.278       .  A
O3808     Zr3845   2.448       .  S
O3808      C3809   1.290       .  A
C3809      C4326   1.467       .  S
O3810     Zr3822   2.408       .  S
O3810      C3812   1.282       .  A
O3811     Zr3846   2.508       .  S
O3811      C3812   1.307       .  A
C3812      C4313   1.492       .  S
O3813     Zr4446   2.503   1_554  S
O3813      C3815   1.296       .  A
O3814     Zr3845   2.398       .  S
O3814      C4439   1.277       .  A
C3815      O4438   1.276       .  A
C3815      C4946   1.487       .  S
O3816     Zr3819   2.378       .  S
O3816      C3818   1.269       .  A
O3817     Zr3846   2.392       .  S
O3817      C3818   1.272       .  A
C3818      C4329   1.425       .  S
Zr3819     O3820   2.435       .  S
Zr3819     O3821   2.435       .  S
Zr3819     O3825   2.372       .  S
Zr3819     O3826   2.377       .  S
Zr3819     O3849   2.371       .  S
Zr3819     O3851   2.361       .  S
O3820      H3863   0.990       .  S
O3821      H3862   0.990       .  S
O3821      H3866   0.990       .  S
Zr3822     O4437   2.503       .  S
Zr3822     O3823   2.434       .  S
Zr3822     O3824   2.428       .  S
Zr3822     O3826   2.370       .  S
Zr3822     O3825   2.363       .  S
Zr3822     O3850   2.304       .  S
Zr3822     O3852   2.424       .  S
O3823      H3864   0.990       .  S
O3823      H4491   0.990       .  S
O3824      H4481   0.990       .  S
O3825     Zr3845   2.372       .  S
O3826     Zr3846   2.404       .  S
O3826      H3853   0.964       .  S
O3827     Zr3839   2.439       .  S
O3827      C3829   1.287       .  A
O3828     Zr3846   2.480       .  S
O3828      C3829   1.299       .  A
C3829      C4338   1.496       .  S
O3830     Zr3842   2.502       .  S
O3830      C3832   1.297       .  A
O3831     Zr3845   2.408       .  S
O3831      C3832   1.279       .  A
C3832      C4321   1.487       .  S
O3833     Zr3842   2.469       .  S
O3833      C3835   1.291       .  A
O3834     Zr3846   2.427       .  S
O3834      C3835   1.290       .  A
C3835      C4317   1.483       .  S
O3836     Zr3839   2.396       .  S
O3836      C3838   1.278       .  A
O3837     Zr3845   2.386       .  S
O3837      C3838   1.282       .  A
C3838      C4333   1.439       .  S
Zr3839     O3840   2.437       .  S
Zr3839     O3841   2.436       .  S
Zr3839     O3847   2.363       .  S
Zr3839     O3848   2.381       .  S
Zr3839     O3851   2.382       .  S
Zr3839     O3849   2.343       .  S
O3840      H3860   0.990       .  S
O3840      H3865   0.990       .  S
O3841      H3861   0.990       .  S
Zr3842     O3843   2.434       .  S
Zr3842     O3844   2.435       .  S
Zr3842     O3848   2.382       .  S
Zr3842     O3847   2.352       .  S
Zr3842     O3852   2.410       .  S
Zr3842     O3850   2.322       .  S
O3843      H3859   0.990       .  S
O3844      H3858   0.990       .  S
O3844      H3868   0.990       .  S
Zr3845     O3848   2.394       .  S
Zr3845     O3850   2.378       .  S
Zr3845     O3851   2.379       .  S
Zr3846     O3847   2.381       .  S
Zr3846     O3849   2.382       .  S
Zr3846     O3852   2.388       .  S
O3847      H3855   0.964       .  S
O3850      H3854   0.948       .  S
O3851      H3856   0.966       .  S
H3857      O4448   0.990       .  S
H3867      O4447   0.990       .  S
O3869      C3871   1.247       .  A
O3870      C3871   1.276       .  A
C3871      C4297   1.472       .  S
O3872     Zr3884   2.469       .  S
O3872      C3874   1.295       .  A
O3873     Zr3908   2.419       .  S
O3873      C3874   1.285       .  A
C3874      C4305   1.485       .  S
O3875      C3877   1.295       .  A
O3876      C3877   1.276       .  A
C3877      C4325   1.471       .  S
O3878     Zr3881   2.393       .  S
O3878      C3880   1.271       .  A
O3879     Zr3908   2.418       .  S
O3879      C3880   1.279       .  A
C3880      C4293   1.459       .  S
Zr3881     O3882   2.436       .  S
Zr3881     O3883   2.437       .  S
Zr3881     O3887   2.383       .  S
Zr3881     O3888   2.374       .  S
Zr3881     O3911   2.373       .  S
Zr3881     O3913   2.417       .  S
O3883      H3924   0.988       .  S
O3883      H3928   0.990       .  S
Zr3884     O3885   2.436       .  S
Zr3884     O4510   2.435   1_554  S
Zr3884     O3888   2.391       .  S
Zr3884     O3887   2.361       .  S
Zr3884     O4536   2.395   1_554  S
Zr3884     O4538   2.386   1_554  S
O3885      H3926   0.990       .  S
O3885      H3929   0.990       .  S
O3886     Zr4508   2.434       .  S
O3886      H3919   0.990       .  S
O3887     Zr4531   2.409   1_554  S
O3888     Zr3908   2.389       .  S
O3888      H3915   0.966       .  S
O3889     Zr4525   2.511       .  S
O3889      C3891   1.297   1_556  A
O3890     Zr3908   2.406       .  S
O3890      C3891   1.279       .  A
C3891      C4933   1.490   1_554  S
O3892     Zr3904   2.405       .  S
O3892      C3894   1.279       .  A
O3893     Zr3907   2.472       .  S
O3893      C3894   1.294       .  A
C3894      C4289   1.486       .  S
O3895     Zr3904   2.508       .  S
O3895      C3897   1.296       .  A
O3896     Zr4532   2.392       .  S
O3896      C3897   1.275       .  A
C3897      C4310   1.486       .  S
O3898      C3900   1.296       .  A
O3899     Zr3907   2.390       .  S
C3900      C4302   1.482       .  S
Zr3901     O4513   2.514       .  S
Zr3901     O3902   2.438   1_565  S
Zr3901     O3909   2.343       .  S
Zr3901     O3910   2.401       .  S
Zr3901     O4537   2.366       .  S
Zr3901     O4535   2.396       .  S
O3902      H3922   0.990       .  S
O3903      H3923   0.990       .  S
Zr3904     O3905   2.435       .  S
Zr3904     O3906   2.433       .  S
Zr3904     O3910   2.416       .  S
Zr3904     O3909   2.314       .  S
Zr3904     O3914   2.359       .  S
Zr3904     O3912   2.379       .  S
O3905      H3921   0.991       .  S
O3906      H3920   0.990       .  S
O3906      H3930   0.990       .  S
Zr3907     O4511   2.403       .  S
Zr3907     O3910   2.387       .  S
Zr3907     O3912   2.407       .  S
Zr3907     O4537   2.430       .  S
Zr3908     O4520   2.391   1_554  S
Zr3908     O4533   2.398   1_554  S
Zr3908     O3911   2.395       .  S
Zr3908     O4538   2.387   1_554  S
O3909     Zr4532   2.401       .  S
O3909      H3917   0.949       .  S
O3911     Zr4525   2.396   1_554  S
O3912     Zr4508   2.391       .  S
O3912      H3916   0.966       .  S
O3913     Zr4525   2.362   1_554  S
O3913     Zr4531   2.435   1_554  S
O3913      H3918   0.968       .  S
O3914     Zr4508   2.384       .  S
O3914     Zr4532   2.391       .  S
O3931      C3933   1.274       .  A
O3932      C3933   1.296       .  A
C3933      C4273   1.472       .  S
O3934     Zr3946   2.353       .  S
O3934      C3936   1.268       .  A
O3935     Zr3970   2.652       .  S
O3935      C3936   1.338       .  A
C3936      C4281   1.532       .  S
O3937      C3939   1.288       .  A
O3938      C3939   1.276       .  A
C3939      C4357   1.449       .  S
O3940     Zr3943   2.426       .  S
O3940      C3942   1.282       .  A
O3941     Zr3970   2.460       .  S
O3941      C3942   1.294       .  A
C3942      C4290   1.484       .  S
Zr3943     O3944   2.437       .  S
Zr3943     O3945   2.412       .  S
Zr3943     O3949   2.365       .  S
Zr3943     O3950   2.362       .  S
Zr3943     O3973   2.329       .  S
Zr3943     O3975   2.387       .  S
O3945      H3986   0.985   1_565  S
O3945      H3990   0.990       .  S
Zr3946     O3947   2.437       .  S
Zr3946     O3948   2.435       .  S
Zr3946     O3950   2.395       .  S
Zr3946     O3949   2.322       .  S
Zr3946     O3974   2.342       .  S
Zr3946     O3976   2.389       .  S
O3947      H3988   0.990       .  S
O3947      H3991   0.990       .  S
O3948      H3981   0.990       .  S
O3949     Zr3969   2.370       .  S
O3950     Zr3970   2.399       .  S
O3950      H3977   0.965       .  S
O3951     Zr3963   2.341   1_545  S
O3951      C3953   1.266   1_545  A
O3952     Zr3970   2.645       .  S
O3952      C3953   1.335       .  A
O3954     Zr3966   2.387       .  S
O3954      C3956   1.276       .  A
O3955     Zr3969   2.470       .  S
O3955      C3956   1.294       .  A
C3956      C4294   1.470       .  S
O3957     Zr3966   2.462       .  S
O3957      C3959   1.292       .  A
O3958     Zr3970   2.400       .  S
O3958      C3959   1.285       .  A
C3959      C4354   1.472       .  S
O3960      C3962   1.295       .  A
O3961     Zr3969   2.393       .  S
C3962      C4277   1.484       .  S
Zr3963     O3964   2.436       .  S
Zr3963     O3971   2.403       .  S
Zr3963     O3972   2.316       .  S
Zr3963     O3975   2.355       .  S
Zr3963     O3973   2.413       .  S
O3964      H3984   0.990       .  S
O3965      H3985   0.990       .  S
Zr3966     O3967   2.434       .  S
Zr3966     O3968   2.435       .  S
Zr3966     O3972   2.384       .  S
Zr3966     O3971   2.358       .  S
Zr3966     O3976   2.329       .  S
Zr3966     O3974   2.398       .  S
O3967      H3983   0.990       .  S
O3968      H3982   0.990       .  S
O3968      H3992   0.990       .  S
Zr3969     O3972   2.373       .  S
Zr3969     O3974   2.386       .  S
Zr3969     O3975   2.375       .  S
Zr3970     O3971   2.411       .  S
Zr3970     O3973   2.389       .  S
Zr3970     O3976   2.385       .  S
O3971      H3979   0.965       .  S
O3974      H3978   0.966       .  S
O3975      H3980   0.964       .  S
O3993     Zr4005   2.621       .  S
O3993      C3995   1.321       .  A
O3994     Zr4031   2.317       .  S
O3994      C3995   1.257       .  A
C3995      C4349   1.516       .  S
O3996     Zr4632   2.391       .  S
O3996      C3998   1.278       .  A
O3997     Zr4656   2.404       .  S
O3997      C3998   1.279       .  A
C3998      C4258   1.456       .  S
O3999     Zr4632   2.385       .  S
O3999      C4625   1.259       .  A
O4000     Zr4031   2.537       .  S
O4000      C4001   1.301       .  A
C4001      O4623   1.258       .  A
C4001      C4938   1.490       .  S
O4002     Zr4005   2.484       .  S
O4002      C4004   1.298       .  A
O4003     Zr4032   2.415       .  S
O4003      C4004   1.286       .  A
C4004      C4306   1.482       .  S
Zr4005     O4006   2.428       .  S
Zr4005     O4007   2.435       .  S
Zr4005     O4011   2.338       .  S
Zr4005     O4012   2.416       .  S
Zr4005     O4035   2.424       .  S
Zr4005     O4037   2.338       .  S
O4006      H4049   0.990       .  S
O4007      H4048   0.990       .  S
O4007      H4052   0.990       .  S
Zr4008     O4620   2.391       .  S
Zr4008     O4623   2.383   1_556  S
Zr4008     O4633   2.443       .  S
Zr4008     O4634   2.436       .  S
Zr4008     O4012   2.358   1_556  S
Zr4008     O4011   2.389   1_556  S
Zr4008     O4036   2.376   1_556  S
Zr4008     O4038   2.359   1_556  S
O4009     Zr4632   2.443       .  S
O4009      H4050   0.988       .  S
O4009      H4053   0.989       .  S
O4010     Zr4632   2.436       .  S
O4010      H4043   0.990       .  S
O4011     Zr4031   2.382       .  S
O4012     Zr4032   2.389       .  S
O4012      H4039   0.964       .  S
O4013     Zr4025   2.495       .  S
O4013      C4015   1.292       .  A
O4014     Zr4032   2.401       .  S
O4014      C4015   1.277       .  A
C4015      C4265   1.488       .  S
O4016     Zr4028   2.504       .  S
O4016      C4018   1.293       .  A
O4017     Zr4031   2.366       .  S
O4017      C4018   1.266       .  A
C4018      C4270   1.467       .  S
O4019     Zr4028   2.504       .  S
O4019      C4021   1.298       .  A
O4020     Zr4032   2.415       .  S
O4020      C4021   1.280       .  A
C4021      C4266   1.487       .  S
O4022     Zr4025   2.385       .  S
O4022      C4024   1.278       .  A
O4023     Zr4031   2.458       .  S
O4023      C4024   1.292       .  A
C4024      C4262   1.472       .  S
Zr4025     O4026   2.436       .  S
Zr4025     O4027   2.434       .  S
Zr4025     O4033   2.298       .  S
Zr4025     O4034   2.416       .  S
Zr4025     O4037   2.368       .  S
Zr4025     O4035   2.365       .  S
O4026      H4046   0.990       .  S
O4026      H4051   0.990       .  S
O4027      H4047   0.990       .  S
Zr4028     O4029   2.433       .  S
Zr4028     O4030   2.435   1_554  S
Zr4028     O4034   2.402       .  S
Zr4028     O4033   2.346       .  S
Zr4028     O4038   2.392       .  S
Zr4028     O4036   2.359       .  S
O4029      H4045   0.990       .  S
O4030      H4668   0.990       .  S
O4030      H4054   0.990       .  S
Zr4031     O4034   2.380       .  S
Zr4031     O4036   2.396       .  S
Zr4031     O4037   2.385       .  S
Zr4032     O4621   2.410   1_554  S
Zr4032     O4033   2.382       .  S
Zr4032     O4035   2.394       .  S
Zr4032     O4038   2.384       .  S
O4033      H4041   0.950       .  S
O4036      H4040   0.959       .  S
O4037      H4042   0.965       .  S
H4044      O4654   0.990       .  S
O4055     Zr4067   2.489       .  S
O4055      C4057   1.293       .  A
O4056     Zr4093   2.379       .  S
O4056      C4057   1.275       .  A
C4057      C4318   1.472       .  S
O4058     Zr4070   2.412       .  S
O4058      C4060   1.280       .  A
O4059     Zr4094   2.427       .  S
O4059      C4060   1.288       .  A
C4060      C4261   1.464       .  S
O4061     Zr4070   2.385       .  S
O4061      C4063   1.280       .  A
O4062     Zr4093   2.459       .  S
O4062      C4063   1.291       .  A
C4063      C4345   1.475       .  S
O4064     Zr4067   2.305       .  S
O4064      C4066   1.261       .  A
O4065     Zr4094   2.680       .  S
O4065      C4066   1.343       .  A
C4066      C4282   1.538       .  S
Zr4067     O4068   2.433       .  S
Zr4067     O4069   2.436       .  S
Zr4067     O4073   2.331       .  S
Zr4067     O4074   2.422       .  S
Zr4067     O4097   2.405       .  S
Zr4067     O4099   2.308       .  S
O4068      H4111   0.990       .  S
O4069      H4110   0.990       .  S
O4069      H4114   0.990       .  S
Zr4070     O4071   2.413       .  S
Zr4070     O4072   2.430       .  S
Zr4070     O4074   2.338       .  S
Zr4070     O4073   2.385       .  S
Zr4070     O4098   2.332       .  S
Zr4070     O4100   2.340       .  S
O4071      H4112   0.990       .  S
O4071      H4115   0.990       .  S
O4072      H4105   0.990       .  S
O4073     Zr4093   2.354       .  S
O4074     Zr4094   2.403       .  S
O4074      H4101   0.964       .  S
O4075     Zr4087   2.530       .  S
O4075      C4077   1.307       .  A
O4076     Zr4094   2.414       .  S
O4076      C4077   1.282       .  A
C4077      C4249   1.505       .  S
O4078     Zr4090   2.522       .  S
O4078      C4080   1.303       .  A
O4079     Zr4093   2.355       .  S
O4079      C4080   1.273       .  A
C4080      C4254   1.478       .  S
O4081     Zr4090   2.383       .  S
O4081      C4083   1.276       .  A
O4082     Zr4094   2.646       .  S
O4082      C4083   1.336       .  A
C4083      C4286   1.532       .  S
O4084     Zr4087   2.411       .  S
O4084      C4086   1.285       .  A
O4085     Zr4093   2.410       .  S
O4085      C4086   1.285       .  A
C4086      C4257   1.445       .  S
Zr4087     O4088   2.437       .  S
Zr4087     O4089   2.434       .  S
Zr4087     O4095   2.317       .  S
Zr4087     O4096   2.418       .  S
Zr4087     O4099   2.393       .  S
Zr4087     O4097   2.348       .  S
O4088      H4108   0.990       .  S
O4088      H4113   0.990       .  S
O4089      H4109   0.990       .  S
Zr4090     O4091   2.434       .  S
Zr4090     O4092   2.438       .  S
Zr4090     O4096   2.346       .  S
Zr4090     O4095   2.429       .  S
Zr4090     O4100   2.396       .  S
Zr4090     O4098   2.336       .  S
O4091      H4107   0.990       .  S
O4092      H4106   0.990       .  S
O4092      H4116   0.990       .  S
Zr4093     O4096   2.390       .  S
Zr4093     O4098   2.369       .  S
Zr4093     O4099   2.378       .  S
Zr4094     O4095   2.413       .  S
Zr4094     O4097   2.402       .  S
Zr4094     O4100   2.401       .  S
O4095      H4103   0.964       .  S
O4098      H4102   0.963       .  S
O4099      H4104   0.965       .  S
O4117      C4119   1.270   1_545  A
O4118      C4119   1.295       .  A
C4119      C4298   1.479       .  S
O4120     Zr4132   2.388       .  S
O4120      C4122   1.278       .  A
O4121     Zr4156   2.498       .  S
O4121      C4122   1.301       .  A
C4122      C4269   1.479       .  S
O4123     Zr4132   2.440       .  S
O4124      C4125   1.278   1_545  A
C4125      C4365   1.453       .  S
O4126     Zr4129   2.393       .  S
O4126      C4128   1.276       .  A
O4127     Zr4156   2.431       .  S
O4127      C4128   1.286       .  A
C4128      C4246   1.465   1_554  S
Zr4129     O4130   2.436       .  S
Zr4129     O4131   2.449       .  S
Zr4129     O4135   2.374       .  S
Zr4129     O4136   2.349       .  S
Zr4129     O4159   2.369       .  S
Zr4129     O4161   2.367       .  S
O4131      H4176   0.988       .  S
Zr4132     O4133   2.437       .  S
Zr4132     O4134   2.435       .  S
Zr4132     O4136   2.395       .  S
Zr4132     O4135   2.337       .  S
Zr4132     O4160   2.359       .  S
Zr4132     O4162   2.362       .  S
O4133      H4174   0.990       .  S
O4133      H4177   0.990       .  S
O4134      H4167   0.990       .  S
O4135     Zr4155   2.349       .  S
O4136     Zr4156   2.379       .  S
O4136      H4163   0.962       .  S
O4137     Zr4149   2.426       .  S
O4137      C4139   1.286       .  A
O4138     Zr4156   2.473       .  S
O4138      C4139   1.298       .  A
C4139      C4361   1.473       .  S
O4140     Zr4152   2.496       .  S
O4140      C4142   1.300       .  A
O4141     Zr4155   2.409       .  S
O4141      C4142   1.283       .  A
C4142      C4241   1.476       .  S
O4143     Zr4152   2.552       .  S
O4143      C4145   1.312       .  A
O4144     Zr4156   2.425       .  S
O4144      C4145   1.284       .  A
C4145      C4350   1.516       .  S
O4147     Zr4155   2.389       .  S
O4147      C4148   1.283       .  A
Zr4149     O4150   2.437       .  S
Zr4149     O4157   2.421       .  S
Zr4149     O4158   2.341       .  S
Zr4149     O4161   2.370       .  S
Zr4149     O4159   2.399       .  S
O4150      H4170   0.990       .  S
O4151      H4171   0.990       .  S
Zr4152     O4153   2.433       .  S
Zr4152     O4154   2.431       .  S
Zr4152     O4158   2.381       .  S
Zr4152     O4157   2.334       .  S
Zr4152     O4162   2.362       .  S
Zr4152     O4160   2.378       .  S
O4153      H4169   0.990       .  S
O4154      H4168   0.990       .  S
O4154      H4178   0.990       .  S
Zr4155     O4158   2.373       .  S
Zr4155     O4160   2.403       .  S
Zr4155     O4161   2.385       .  S
Zr4156     O4157   2.409       .  S
Zr4156     O4159   2.407       .  S
Zr4156     O4162   2.392       .  S
O4157      H4165   0.963       .  S
O4160      H4164   0.965       .  S
O4161      H4166   0.964       .  S
O4179      C4181   1.276       .  A
O4180      C4181   1.297       .  A
C4181      C4274   1.503       .  S
O4182     Zr4194   2.352       .  S
O4182      C4184   1.273       .  A
O4183     Zr4218   2.529       .  S
O4183      C4184   1.308       .  A
C4184      C4253   1.483       .  S
O4185      C4187   1.287   1_545  A
O4186      C4187   1.276   1_545  A
C4187      C4334   1.431       .  S
O4188     Zr4191   2.482       .  S
O4188      C4190   1.294       .  A
O4189     Zr4218   2.406       .  S
O4189      C4190   1.281       .  A
C4190      C4242   1.480       .  S
Zr4191     O4192   2.429       .  S
Zr4191     O4193   2.431       .  S
Zr4191     O4197   2.373       .  S
Zr4191     O4198   2.348       .  S
Zr4191     O4221   2.338       .  S
Zr4191     O4223   2.422       .  S
O4193      H4238   0.990       .  S
Zr4194     O4195   2.436       .  S
Zr4194     O4196   2.436       .  S
Zr4194     O4198   2.383       .  S
Zr4194     O4197   2.307       .  S
Zr4194     O4222   2.345       .  S
Zr4194     O4224   2.367       .  S
O4195      H4236   0.990       .  S
O4195      H4239   0.990       .  S
O4196      H4229   0.990       .  S
O4197     Zr4217   2.357       .  S
O4198     Zr4218   2.380       .  S
O4198      H4225   0.962       .  S
O4199     Zr4211   2.368       .  S
O4199      C4201   1.263       .  A
O4200     Zr4218   2.577       .  S
O4200      C4201   1.313       .  A
O4202     Zr4214   2.376       .  S
O4202      C4204   1.277       .  A
O4203     Zr4217   2.467       .  S
O4203      C4204   1.294       .  A
C4204      C4245   1.466       .  S
O4205     Zr4214   2.411       .  S
O4205      C4207   1.284       .  A
O4206     Zr4218   2.337       .  S
O4206      C4207   1.269       .  A
C4207      C4330   1.414       .  S
O4208      C4210   1.293       .  A
O4209     Zr4217   2.422       .  S
C4210      C4301   1.485       .  S
Zr4211     O4212   2.439       .  S
Zr4211     O4219   2.413       .  S
Zr4211     O4220   2.329       .  S
Zr4211     O4223   2.364       .  S
Zr4211     O4221   2.406       .  S
O4212      H4232   0.990       .  S
O4213      H4233   0.990       .  S
Zr4214     O4215   2.434       .  S
Zr4214     O4216   2.437       .  S
Zr4214     O4220   2.370       .  S
Zr4214     O4219   2.342       .  S
Zr4214     O4224   2.335       .  S
Zr4214     O4222   2.344       .  S
O4215      H4231   0.990       .  S
O4216      H4230   0.990       .  S
O4216      H4240   0.990       .  S
Zr4217     O4220   2.358       .  S
Zr4217     O4222   2.392       .  S
Zr4217     O4223   2.397       .  S
Zr4218     O4219   2.404       .  S
Zr4218     O4221   2.382       .  S
Zr4218     O4224   2.408       .  S
O4219      H4227   0.965       .  S
O4222      H4226   0.965       .  S
C4241      C4242   1.345       .  D
C4241      H4243   1.087       .  S
C4242      H4244   1.087       .  S
C4245      C4870   1.358       .  D
C4245      H4247   1.086       .  S
C4246      C4869   1.355       .  D
C4246      H4248   1.086       .  S
C4249      C4250   1.381       .  D
C4249      H4251   1.085       .  S
C4250      H4252   1.085       .  S
C4253      C4254   1.372       .  D
C4253      H4255   1.087       .  S
C4254      H4256   1.086       .  S
C4257      C4258   1.343       .  D
C4257      H4259   1.087       .  S
C4258      H4260   1.087       .  S
C4261      C4262   1.356       .  D
C4261      H4263   1.087       .  S
C4262      H4264   1.087       .  S
C4265      C4266   1.366       .  D
C4265      H4267   1.085       .  S
C4266      H4268   1.086       .  S
C4269      C4270   1.362       .  D
C4269      H4271   1.081       .  S
C4270      H4272   1.086       .  S
C4273      C4274   1.361       .  D
C4273      H4275   1.086       .  S
C4274      H4276   1.080       .  S
C4277      C4278   1.358       .  D
C4277      H4279   1.087   1_655  S
C4281      C4282   1.416       .  D
C4281      H4283   1.085       .  S
C4282      H4284   1.085       .  S
C4285      C4286   1.409       .  D
C4286      H4288   1.085       .  S
C4289      C4290   1.361       .  D
C4289      H4291   1.086       .  S
C4290      H4292   1.086       .  S
C4293      C4294   1.354       .  D
C4293      H4295   1.086       .  S
C4294      H4296   1.085       .  S
C4297      C4298   1.366       .  D
C4297      H4299   1.086       .  S
C4298      H4300   1.085       .  S
C4301      C4302   1.349       .  D
C4301      H4303   1.086       .  S
C4305      C4306   1.343       .  D
C4305      H4307   1.087       .  S
C4306      H4308   1.087       .  S
C4309      C4515   1.489       .  S
C4309      C4310   1.366       .  D
C4309      H4311   1.085       .  S
C4310      H4312   1.085       .  S
C4313      C4314   1.372       .  D
C4313      H4315   1.084       .  S
C4314      C4625   1.492       .  S
C4314      H4316   1.086       .  S
C4317      C4318   1.346       .  D
C4317      H4319   1.086       .  S
C4318      H4320   1.087       .  S
C4321      C4322   1.367       .  D
C4321      H4323   1.085       .  S
C4322      C4439   1.487       .  S
C4322      H4324   1.085       .  S
C4325      C4326   1.356       .  D
C4325      H4327   1.086       .  S
C4326      H4328   1.087       .  S
C4329      C4330   1.330       .  D
C4329      H4331   1.089       .  S
C4330      H4332   1.087       .  S
C4333      C4334   1.329       .  D
C4333      H4335   1.081       .  S
C4334      H4336   1.086       .  S
C4337      C4338   1.355       .  D
C4337      H4339   1.087       .  S
C4338      H4340   1.086       .  S
C4341      C4342   1.355       .  D
C4341      H4343   1.083       .  S
C4342      H4344   1.085       .  S
C4345      C4346   1.350       .  D
C4345      H4347   1.087       .  S
C4346      H4348   1.087       .  S
C4349      C4350   1.383       .  D
C4349      H4351   1.085       .  S
C4350      H4352   1.087       .  S
C4353      C4354   1.347       .  D
C4353      H4355   1.087       .  S
C4354      H4356   1.087       .  S
C4357      C4358   1.335       .  D
C4357      H4359   1.088       .  S
C4358      H4360   1.086       .  S
C4361      C4362   1.362       .  D
C4361      H4363   1.086       .  S
C4362      H4364   1.087       .  S
C4365      C4366   1.337       .  D
C4365      H4367   1.088       .  S
C4366      H4368   1.087       .  S
O4369     Zr4381   2.425       .  S
O4369      C4371   1.288       .  A
O4370     Zr4407   2.409       .  S
O4370      C4371   1.282       .  A
C4371      C4990   1.467       .  S
O4372     Zr4384   2.464       .  S
O4372      C4374   1.292       .  A
O4373     Zr4408   2.460       .  S
O4373      C4374   1.293       .  A
C4374      C4961   1.487       .  S
O4375     Zr4384   2.456       .  S
O4375      C4377   1.290       .  A
O4376     Zr4407   2.404       .  S
O4376      C4377   1.285       .  A
C4377      C4977   1.468       .  S
O4378     Zr4381   2.428       .  S
O4378      C4380   1.289       .  A
O4379     Zr4408   2.404       .  S
O4379      C4380   1.280       .  A
C4380      C4982   1.464       .  S
Zr4381     O4382   2.434       .  S
Zr4381     O4383   2.436       .  S
Zr4381     O4387   2.368       .  S
Zr4381     O4388   2.357       .  S
Zr4381     O4411   2.374       .  S
Zr4381     O4413   2.370       .  S
O4382      H4425   0.990       .  S
O4383      H4424   0.990       .  S
O4383      H4428   0.990       .  S
Zr4384     O4385   2.435       .  S
Zr4384     O4386   2.436       .  S
Zr4384     O4388   2.375       .  S
Zr4384     O4387   2.371       .  S
Zr4384     O4412   2.372       .  S
Zr4384     O4414   2.370       .  S
O4385      H4426   0.990       .  S
O4385      H4429   0.990       .  S
O4386      H4419   0.990       .  S
O4387     Zr4407   2.383       .  S
O4388     Zr4408   2.395       .  S
O4388      H4415   0.965       .  S
O4389     Zr4401   2.391       .  S
O4389      C4391   1.277       .  A
O4390     Zr4408   2.482       .  S
O4390      C4391   1.298       .  A
C4391      C4986   1.482       .  S
O4392     Zr4404   2.463       .  S
O4392      C4394   1.291       .  A
O4393     Zr4407   2.430       .  S
O4393      C4394   1.282       .  A
C4394      C4966   1.479       .  S
O4395     Zr4404   2.472       .  S
O4395      C4397   1.294       .  A
O4396     Zr4408   2.391       .  S
O4396      C4397   1.277       .  A
C4397      C4970   1.464       .  S
O4398     Zr4401   2.455       .  S
O4398      C4400   1.287       .  A
O4399     Zr4407   2.424       .  S
O4399      C4400   1.281       .  A
C4400      C4965   1.477       .  S
Zr4401     O4402   2.439       .  S
Zr4401     O4403   2.437       .  S
Zr4401     O4409   2.417       .  S
Zr4401     O4410   2.336       .  S
Zr4401     O4413   2.364       .  S
Zr4401     O4411   2.370       .  S
O4402      H4422   0.990       .  S
O4402      H4427   0.990       .  S
O4403      H4423   0.990       .  S
Zr4404     O4405   2.419       .  S
Zr4404     O4406   2.432       .  S
Zr4404     O4410   2.351       .  S
Zr4404     O4409   2.382       .  S
Zr4404     O4414   2.358       .  S
Zr4404     O4412   2.366       .  S
O4405      H4421   0.990       .  S
O4406      H4420   0.989       .  S
O4406      H4430   0.989       .  S
Zr4407     O4410   2.361       .  S
Zr4407     O4412   2.388       .  S
Zr4407     O4413   2.390       .  S
Zr4408     O4409   2.394       .  S
Zr4408     O4411   2.391       .  S
Zr4408     O4414   2.389       .  S
O4409      H4417   0.965       .  S
O4412      H4416   0.963       .  S
O4413      H4418   0.966       .  S
O4431     Zr4443   2.400       .  S
O4431      C4433   1.279       .  A
O4432     Zr4469   2.444       .  S
O4432      C4433   1.290       .  A
C4433      C4950   1.467       .  S
O4434     Zr4446   2.397       .  S
O4434      C4436   1.279       .  A
O4435     Zr4470   2.510       .  S
O4435      C4436   1.306       .  A
C4436      C4937   1.490       .  S
O4437      C4439   1.296       .  A
O4438     Zr4469   2.395   1_554  S
O4440     Zr4443   2.396       .  S
O4440      C4442   1.276       .  A
O4441     Zr4470   2.365       .  S
O4441      C4442   1.278       .  A
C4442      C4953   1.434       .  S
Zr4443     O4444   2.434       .  S
Zr4443     O4445   2.436       .  S
Zr4443     O4449   2.377       .  S
Zr4443     O4450   2.361       .  S
Zr4443     O4473   2.366       .  S
Zr4443     O4475   2.355       .  S
O4444      H4487   0.990       .  S
O4445      H4486   0.990       .  S
O4445      H4490   0.990       .  S
Zr4446     O4447   2.434   1_556  S
Zr4446     O4448   2.425   1_556  S
Zr4446     O4450   2.376       .  S
Zr4446     O4449   2.358       .  S
Zr4446     O4474   2.303       .  S
Zr4446     O4476   2.427       .  S
O4447      H4488   0.990       .  S
O4449     Zr4469   2.370       .  S
O4450     Zr4470   2.396       .  S
O4450      H4477   0.964       .  S
O4451     Zr4463   2.435       .  S
O4451      C4453   1.287       .  A
O4452     Zr4470   2.483       .  S
O4452      C4453   1.298       .  A
C4453      C4962   1.499       .  S
O4454     Zr4466   2.500       .  S
O4454      C4456   1.296       .  A
O4455     Zr4469   2.408       .  S
O4455      C4456   1.279       .  A
C4456      C4945   1.488   1_556  S
O4457     Zr4466   2.467       .  S
O4457      C4459   1.290       .  A
O4458     Zr4470   2.423       .  S
O4458      C4459   1.289       .  A
C4459      C4941   1.484       .  S
O4460     Zr4463   2.405       .  S
O4460      C4462   1.280       .  A
O4461     Zr4469   2.366       .  S
O4461      C4462   1.276       .  A
C4462      C4957   1.421       .  S
Zr4463     O4464   2.436       .  S
Zr4463     O4465   2.436       .  S
Zr4463     O4471   2.364       .  S
Zr4463     O4472   2.382       .  S
Zr4463     O4475   2.377       .  S
Zr4463     O4473   2.351       .  S
O4464      H4484   0.990       .  S
O4464      H4489   0.990       .  S
O4465      H4485   0.990       .  S
Zr4466     O4467   2.434       .  S
Zr4466     O4468   2.436       .  S
Zr4466     O4472   2.385       .  S
Zr4466     O4471   2.354       .  S
Zr4466     O4476   2.416       .  S
Zr4466     O4474   2.323       .  S
O4467      H4483   0.990       .  S
O4468      H4482   0.990       .  S
O4468      H4492   0.990       .  S
Zr4469     O4472   2.395       .  S
Zr4469     O4474   2.373       .  S
Zr4469     O4475   2.379       .  S
Zr4470     O4471   2.381       .  S
Zr4470     O4473   2.381       .  S
Zr4470     O4476   2.385       .  S
O4471      H4479   0.965       .  S
O4474      H4478   0.949       .  S
O4475      H4480   0.966       .  S
O4493      C4495   1.243       .  A
O4494      C4495   1.277       .  A
C4495      C4921   1.480       .  S
O4496     Zr4508   2.471       .  S
O4496      C4498   1.295       .  A
O4497     Zr4532   2.411       .  S
O4497      C4498   1.284       .  A
C4498      C4929   1.482       .  S
O4499      C4501   1.293       .  A
O4500      C4501   1.277       .  A
C4501      C4949   1.470       .  S
O4502     Zr4505   2.386       .  S
O4502      C4504   1.270       .  A
O4503     Zr4532   2.435       .  S
O4503      C4504   1.283       .  A
C4504      C4917   1.465       .  S
Zr4505     O4506   2.435       .  S
Zr4505     O4507   2.430       .  S
Zr4505     O4511   2.382       .  S
Zr4505     O4512   2.366       .  S
Zr4505     O4535   2.366       .  S
Zr4505     O4537   2.414       .  S
O4507      H4548   0.986       .  S
O4507      H4552   0.990       .  S
Zr4508     O4509   2.436       .  S
Zr4508     O4512   2.387       .  S
Zr4508     O4511   2.361       .  S
O4509      H4550   0.990       .  S
O4509      H4553   0.990       .  S
O4510      H4543   0.990       .  S
O4512     Zr4532   2.383       .  S
O4512      H4539   0.966       .  S
O4513      C4515   1.298       .  A
O4514     Zr4532   2.402       .  S
O4514      C4515   1.279       .  A
O4516     Zr4528   2.392       .  S
O4516      C4518   1.276       .  A
O4517     Zr4531   2.472       .  S
O4517      C4518   1.294       .  A
C4518      C4913   1.480       .  S
O4519     Zr4528   2.509       .  S
O4519      C4521   1.295       .  A
O4520      C4521   1.275       .  A
C4521      C4934   1.486       .  S
O4522      C4524   1.297       .  A
O4523     Zr4531   2.385       .  S
C4524      C4926   1.482       .  S
Zr4525     O4526   2.438   1_565  S
Zr4525     O4533   2.344       .  S
Zr4525     O4534   2.400       .  S
O4526      H4546   0.990       .  S
O4527      H4547   0.990       .  S
Zr4528     O4529   2.436       .  S
Zr4528     O4530   2.434       .  S
Zr4528     O4534   2.420       .  S
Zr4528     O4533   2.311       .  S
Zr4528     O4538   2.355       .  S
Zr4528     O4536   2.382       .  S
O4529      H4545   0.991       .  S
O4530      H4544   0.990       .  S
O4530      H4554   0.990       .  S
Zr4531     O4534   2.383       .  S
Zr4531     O4536   2.407       .  S
Zr4532     O4535   2.392       .  S
O4533      H4541   0.950       .  S
O4536      H4540   0.966       .  S
O4537      H4542   0.967       .  S
O4555      C4557   1.258       .  A
O4556      C4557   1.292       .  A
C4557      C4897   1.487       .  S
O4558     Zr4570   2.339       .  S
O4558      C4560   1.266       .  A
O4559     Zr4594   2.653       .  S
O4559      C4560   1.338       .  A
C4560      C4905   1.530       .  S
O4561      C4563   1.287       .  A
O4562      C4563   1.277       .  A
C4563      C4981   1.447       .  S
O4564     Zr4567   2.407       .  S
O4564      C4566   1.279       .  A
O4565     Zr4594   2.467       .  S
O4565      C4566   1.296       .  A
C4566      C4914   1.480       .  S
Zr4567     O4568   2.436       .  S
Zr4567     O4569   2.414       .  S
Zr4567     O4573   2.367       .  S
Zr4567     O4574   2.356       .  S
Zr4567     O4597   2.324       .  S
Zr4567     O4599   2.381       .  S
O4569      H4610   0.983       .  S
O4569      H4614   0.990       .  S
Zr4570     O4571   2.437       .  S
Zr4570     O4572   2.435       .  S
Zr4570     O4574   2.381       .  S
Zr4570     O4573   2.322       .  S
Zr4570     O4598   2.340       .  S
Zr4570     O4600   2.387       .  S
O4571      H4612   0.990       .  S
O4571      H4615   0.990       .  S
O4572      H4605   0.990       .  S
O4573     Zr4593   2.373       .  S
O4574     Zr4594   2.394       .  S
O4574      H4601   0.965       .  S
O4575     Zr4587   2.353   1_545  S
O4575      C4577   1.268   1_545  A
O4576     Zr4594   2.638       .  S
O4576      C4577   1.334       .  A
O4578     Zr4590   2.389       .  S
O4578      C4580   1.274       .  A
O4579     Zr4593   2.479       .  S
O4579      C4580   1.295       .  A
C4580      C4918   1.472       .  S
O4581     Zr4590   2.461       .  S
O4581      C4583   1.291       .  A
O4582     Zr4594   2.394       .  S
O4582      C4583   1.285       .  A
C4583      C4978   1.470       .  S
O4584      C4586   1.294       .  A
O4585     Zr4593   2.412       .  S
C4586      C4901   1.482       .  S
Zr4587     O4588   2.435       .  S
Zr4587     O4595   2.398       .  S
Zr4587     O4596   2.319       .  S
Zr4587     O4599   2.361       .  S
Zr4587     O4597   2.409       .  S
O4588      H4608   0.990       .  S
O4589      H4609   0.990       .  S
Zr4590     O4591   2.434       .  S
Zr4590     O4592   2.435       .  S
Zr4590     O4596   2.385       .  S
Zr4590     O4595   2.358       .  S
Zr4590     O4600   2.331       .  S
Zr4590     O4598   2.397       .  S
O4591      H4607   0.990       .  S
O4592      H4606   0.990       .  S
O4592      H4616   0.990       .  S
Zr4593     O4596   2.383       .  S
Zr4593     O4598   2.388       .  S
Zr4593     O4599   2.384       .  S
Zr4594     O4595   2.414       .  S
Zr4594     O4597   2.389       .  S
Zr4594     O4600   2.383       .  S
O4595      H4603   0.966       .  S
O4598      H4602   0.966       .  S
O4599      H4604   0.963       .  S
O4617     Zr4629   2.609       .  S
O4617      C4619   1.316       .  A
O4618     Zr4655   2.330       .  S
O4618      C4619   1.256       .  A
C4619      C4973   1.517       .  S
O4620      C4622   1.278       .  A
O4621      C4622   1.280       .  A
C4622      C4882   1.458       .  S
O4624     Zr4655   2.537       .  S
O4624      C4625   1.301       .  A
O4626     Zr4629   2.478       .  S
O4626      C4628   1.297       .  A
O4627     Zr4656   2.415       .  S
O4627      C4628   1.286       .  A
C4628      C4930   1.482       .  S
Zr4629     O4630   2.430       .  S
Zr4629     O4631   2.435       .  S
Zr4629     O4635   2.339       .  S
Zr4629     O4636   2.412       .  S
Zr4629     O4659   2.424       .  S
Zr4629     O4661   2.344       .  S
O4630      H4673   0.990       .  S
O4631      H4672   0.990       .  S
O4631      H4676   0.990       .  S
Zr4632     O4636   2.357       .  S
Zr4632     O4635   2.386       .  S
Zr4632     O4660   2.375       .  S
Zr4632     O4662   2.360       .  S
O4633      H4674   0.988       .  S
O4633      H4677   0.989       .  S
O4634      H4667   0.990       .  S
O4635     Zr4655   2.383       .  S
O4636     Zr4656   2.389       .  S
O4636      H4663   0.964       .  S
O4637     Zr4649   2.496       .  S
O4637      C4639   1.292       .  A
O4638     Zr4656   2.401       .  S
O4638      C4639   1.276       .  A
C4639      C4889   1.488       .  S
O4640     Zr4652   2.503       .  S
O4640      C4642   1.295       .  A
O4641     Zr4655   2.363       .  S
O4641      C4642   1.270       .  A
C4642      C4894   1.465       .  S
O4643     Zr4652   2.503       .  S
O4643      C4645   1.298       .  A
O4644     Zr4656   2.415       .  S
O4644      C4645   1.280       .  A
C4645      C4890   1.487       .  S
O4646     Zr4649   2.385       .  S
O4646      C4648   1.278       .  A
O4647     Zr4655   2.455       .  S
O4647      C4648   1.292       .  A
C4648      C4886   1.472       .  S
Zr4649     O4650   2.436       .  S
Zr4649     O4651   2.434       .  S
Zr4649     O4657   2.297       .  S
Zr4649     O4658   2.417       .  S
Zr4649     O4661   2.367       .  S
Zr4649     O4659   2.366       .  S
O4650      H4670   0.990       .  S
O4650      H4675   0.990       .  S
O4651      H4671   0.990       .  S
Zr4652     O4653   2.433       .  S
Zr4652     O4654   2.435       .  S
Zr4652     O4658   2.401       .  S
Zr4652     O4657   2.344       .  S
Zr4652     O4662   2.392       .  S
Zr4652     O4660   2.355       .  S
O4653      H4669   0.990       .  S
O4654      H4678   0.990       .  S
Zr4655     O4658   2.382       .  S
Zr4655     O4660   2.395       .  S
Zr4655     O4661   2.390       .  S
Zr4656     O4657   2.382       .  S
Zr4656     O4659   2.392       .  S
Zr4656     O4662   2.386       .  S
O4657      H4665   0.950       .  S
O4660      H4664   0.959       .  S
O4661      H4666   0.965       .  S
O4679     Zr4691   2.492       .  S
O4679      C4681   1.294       .  A
O4680     Zr4717   2.374       .  S
O4680      C4681   1.275       .  A
C4681      C4942   1.472       .  S
O4682     Zr4694   2.410       .  S
O4682      C4684   1.280       .  A
O4683     Zr4718   2.425       .  S
O4683      C4684   1.288       .  A
C4684      C4885   1.464       .  S
O4685     Zr4694   2.376       .  S
O4685      C4687   1.278       .  A
O4686     Zr4717   2.463       .  S
O4686      C4687   1.292       .  A
C4687      C4969   1.476       .  S
O4688     Zr4691   2.303       .  S
O4688      C4690   1.261       .  A
O4689     Zr4718   2.678       .  S
O4689      C4690   1.342       .  A
C4690      C4906   1.535       .  S
Zr4691     O4692   2.433       .  S
Zr4691     O4693   2.436       .  S
Zr4691     O4697   2.329       .  S
Zr4691     O4698   2.423       .  S
Zr4691     O4721   2.406       .  S
Zr4691     O4723   2.307       .  S
O4692      H4735   0.990       .  S
O4693      H4734   0.990       .  S
O4693      H4738   0.990       .  S
Zr4694     O4695   2.414       .  S
Zr4694     O4696   2.428       .  S
Zr4694     O4698   2.331       .  S
Zr4694     O4697   2.384       .  S
Zr4694     O4722   2.329       .  S
Zr4694     O4724   2.339       .  S
O4695      H4736   0.990       .  S
O4695      H4739   0.990       .  S
O4696      H4729   0.990       .  S
O4697     Zr4717   2.354       .  S
O4698     Zr4718   2.402       .  S
O4698      H4725   0.964       .  S
O4699     Zr4711   2.533       .  S
O4699      C4701   1.308       .  A
O4700     Zr4718   2.412       .  S
O4700      C4701   1.282       .  A
C4701      C4873   1.505       .  S
O4702     Zr4714   2.522       .  S
O4702      C4704   1.303       .  A
O4703     Zr4717   2.360       .  S
O4703      C4704   1.274       .  A
C4704      C4878   1.479       .  S
O4705     Zr4714   2.377       .  S
O4705      C4707   1.275       .  A
O4706     Zr4718   2.646       .  S
O4706      C4707   1.336       .  A
C4707      C4910   1.530       .  S
O4708     Zr4711   2.411       .  S
O4708      C4710   1.285       .  A
O4709     Zr4717   2.416       .  S
O4709      C4710   1.286       .  A
C4710      C4881   1.447       .  S
Zr4711     O4712   2.437       .  S
Zr4711     O4713   2.434       .  S
Zr4711     O4719   2.316       .  S
Zr4711     O4720   2.421       .  S
Zr4711     O4723   2.393       .  S
Zr4711     O4721   2.348       .  S
O4712      H4732   0.990       .  S
O4712      H4737   0.990       .  S
O4713      H4733   0.990       .  S
Zr4714     O4715   2.434       .  S
Zr4714     O4716   2.438       .  S
Zr4714     O4720   2.347       .  S
Zr4714     O4719   2.429       .  S
Zr4714     O4724   2.397       .  S
Zr4714     O4722   2.333       .  S
O4715      H4731   0.990       .  S
O4716      H4730   0.990       .  S
O4716      H4740   0.990       .  S
Zr4717     O4720   2.391       .  S
Zr4717     O4722   2.368       .  S
Zr4717     O4723   2.380       .  S
Zr4718     O4719   2.413       .  S
Zr4718     O4721   2.403       .  S
Zr4718     O4724   2.400       .  S
O4719      H4727   0.964       .  S
O4722      H4726   0.963       .  S
O4723      H4728   0.965       .  S
O4741      C4743   1.268   1_545  A
O4742      C4743   1.300       .  A
C4743      C4922   1.486       .  S
O4744     Zr4756   2.392       .  S
O4744      C4746   1.279       .  A
O4745     Zr4780   2.494       .  S
O4745      C4746   1.301       .  A
C4746      C4893   1.478       .  S
O4747     Zr4756   2.452       .  S
O4748      C4749   1.280   1_545  A
C4749      C4989   1.457       .  S
O4750     Zr4753   2.389       .  S
O4750      C4752   1.275       .  A
O4751     Zr4780   2.437       .  S
O4751      C4752   1.289       .  A
C4752      C4870   1.463       .  S
Zr4753     O4754   2.438       .  S
Zr4753     O4755   2.443       .  S
Zr4753     O4759   2.365       .  S
Zr4753     O4760   2.348       .  S
Zr4753     O4783   2.365       .  S
Zr4753     O4785   2.358       .  S
O4755      H4800   0.990       .  S
Zr4756     O4757   2.437       .  S
Zr4756     O4758   2.435       .  S
Zr4756     O4760   2.402       .  S
Zr4756     O4759   2.326       .  S
Zr4756     O4784   2.362       .  S
Zr4756     O4786   2.364       .  S
O4757      H4798   0.990       .  S
O4757      H4801   0.990       .  S
O4758      H4791   0.990       .  S
O4759     Zr4779   2.341       .  S
O4760     Zr4780   2.379       .  S
O4760      H4787   0.963       .  S
O4761     Zr4773   2.420       .  S
O4761      C4763   1.286       .  A
O4762     Zr4780   2.483       .  S
O4762      C4763   1.301       .  A
C4763      C4985   1.474       .  S
O4764     Zr4776   2.459       .  S
O4764      C4766   1.292       .  A
O4765     Zr4779   2.455       .  S
O4765      C4766   1.295       .  A
C4766      C4865   1.482       .  S
O4767     Zr4776   2.536       .  S
O4767      C4769   1.309       .  A
O4768     Zr4780   2.436       .  S
O4768      C4769   1.286       .  A
C4769      C4974   1.514       .  S
O4771     Zr4779   2.379       .  S
O4771      C4772   1.282       .  A
Zr4773     O4774   2.436       .  S
Zr4773     O4781   2.429       .  S
Zr4773     O4782   2.337       .  S
Zr4773     O4785   2.365       .  S
Zr4773     O4783   2.403       .  S
O4774      H4794   0.990       .  S
O4775      H4795   0.990       .  S
Zr4776     O4777   2.433       .  S
Zr4776     O4778   2.430       .  S
Zr4776     O4782   2.384       .  S
Zr4776     O4781   2.330       .  S
Zr4776     O4786   2.352       .  S
Zr4776     O4784   2.379       .  S
O4777      H4793   0.990       .  S
O4778      H4792   0.990       .  S
O4778      H4802   0.990       .  S
Zr4779     O4782   2.361       .  S
Zr4779     O4784   2.408       .  S
Zr4779     O4785   2.386       .  S
Zr4780     O4781   2.404       .  S
Zr4780     O4783   2.406       .  S
Zr4780     O4786   2.394       .  S
O4781      H4789   0.962       .  S
O4784      H4788   0.965       .  S
O4785      H4790   0.965       .  S
O4803      C4805   1.267       .  A
O4804      C4805   1.290       .  A
C4805      C4898   1.509       .  S
O4806     Zr4818   2.349       .  S
O4806      C4808   1.271       .  A
O4807     Zr4842   2.530       .  S
O4807      C4808   1.308       .  A
C4808      C4877   1.485       .  S
O4809      C4811   1.282   1_545  A
O4810      C4811   1.280   1_545  A
C4811      C4958   1.432       .  S
O4812     Zr4815   2.445       .  S
O4812      C4814   1.285       .  A
O4813     Zr4842   2.436       .  S
O4813      C4814   1.288       .  A
C4814      C4866   1.475       .  S
Zr4815     O4816   2.427       .  S
Zr4815     O4817   2.433       .  S
Zr4815     O4821   2.380       .  S
Zr4815     O4822   2.337       .  S
Zr4815     O4845   2.347       .  S
Zr4815     O4847   2.400       .  S
O4817      H4862   0.989       .  S
Zr4818     O4819   2.437       .  S
Zr4818     O4820   2.436       .  S
Zr4818     O4822   2.378       .  S
Zr4818     O4821   2.321       .  S
Zr4818     O4846   2.338       .  S
Zr4818     O4848   2.378       .  S
O4819      H4860   0.990       .  S
O4819      H4863   0.990       .  S
O4820      H4853   0.990       .  S
O4821     Zr4841   2.367       .  S
O4822     Zr4842   2.368       .  S
O4822      H4849   0.963       .  S
O4823     Zr4835   2.368       .  S
O4823      C4825   1.268       .  A
O4824     Zr4842   2.577       .  S
O4824      C4825   1.316       .  A
O4826     Zr4838   2.398       .  S
O4826      C4828   1.281       .  A
O4827     Zr4841   2.450       .  S
O4827      C4828   1.292       .  A
C4828      C4869   1.462       .  S
O4829     Zr4838   2.432       .  S
O4829      C4831   1.289       .  A
O4830     Zr4842   2.342       .  S
O4830      C4831   1.270       .  A
C4831      C4954   1.425       .  S
O4832      C4834   1.292       .  A
O4833     Zr4841   2.394       .  S
C4834      C4925   1.486       .  S
Zr4835     O4836   2.438       .  S
Zr4835     O4843   2.397       .  S
Zr4835     O4844   2.326       .  S
Zr4835     O4847   2.346       .  S
Zr4835     O4845   2.416       .  S
O4836      H4856   0.990       .  S
O4837      H4857   0.990       .  S
Zr4838     O4839   2.435       .  S
Zr4838     O4840   2.437       .  S
Zr4838     O4844   2.372       .  S
Zr4838     O4843   2.349       .  S
Zr4838     O4848   2.341       .  S
Zr4838     O4846   2.353       .  S
O4839      H4855   0.990       .  S
O4840      H4854   0.990       .  S
O4840      H4864   0.990       .  S
Zr4841     O4844   2.362       .  S
Zr4841     O4846   2.390       .  S
Zr4841     O4847   2.385       .  S
Zr4842     O4843   2.409       .  S
Zr4842     O4845   2.381       .  S
Zr4842     O4848   2.411       .  S
O4843      H4851   0.963       .  S
O4846      H4850   0.965       .  S
C4865      C4866   1.348       .  D
C4865      H4867   1.087       .  S
C4866      H4868   1.085       .  S
C4869      H4871   1.086       .  S
C4870      H4872   1.086       .  S
C4873      C4874   1.381       .  D
C4873      H4875   1.085       .  S
C4874      H4876   1.085       .  S
C4877      C4878   1.373       .  D
C4877      H4879   1.086       .  S
C4878      H4880   1.086       .  S
C4881      C4882   1.345       .  D
C4881      H4883   1.087       .  S
C4882      H4884   1.087       .  S
C4885      C4886   1.356       .  D
C4885      H4887   1.087       .  S
C4886      H4888   1.087       .  S
C4889      C4890   1.366       .  D
C4889      H4891   1.085       .  S
C4890      H4892   1.086       .  S
C4893      C4894   1.362       .  D
C4893      H4895   1.084       .  S
C4894      H4896   1.086       .  S
C4897      C4898   1.371       .  D
C4897      H4899   1.087       .  S
C4898      H4900   1.083       .  S
C4901      C4902   1.357       .  D
C4901      H4903   1.087   1_655  S
C4905      C4906   1.416       .  D
C4905      H4907   1.085       .  S
C4906      H4908   1.085       .  S
C4909      C4910   1.409       .  D
C4910      H4912   1.085       .  S
C4913      C4914   1.363       .  D
C4913      H4915   1.086       .  S
C4914      H4916   1.086       .  S
C4917      C4918   1.357       .  D
C4917      H4919   1.086       .  S
C4918      H4920   1.085       .  S
C4921      C4922   1.367       .  D
C4921      H4923   1.086       .  S
C4922      H4924   1.084       .  S
C4925      C4926   1.349       .  D
C4925      H4927   1.086       .  S
C4929      C4930   1.342       .  D
C4929      H4931   1.087       .  S
C4930      H4932   1.087       .  S
C4933      C4934   1.367       .  D
C4933      H4935   1.085       .  S
C4934      H4936   1.085       .  S
C4937      C4938   1.372   1_556  D
C4937      H4939   1.084       .  S
C4938      H4940   1.086       .  S
C4941      C4942   1.345       .  D
C4941      H4943   1.086       .  S
C4942      H4944   1.088       .  S
C4945      C4946   1.367       .  D
C4945      H4947   1.085       .  S
C4946      H4948   1.085       .  S
C4949      C4950   1.354       .  D
C4949      H4951   1.086       .  S
C4950      H4952   1.087       .  S
C4953      C4954   1.332       .  D
C4953      H4955   1.089       .  S
C4954      H4956   1.088       .  S
C4957      C4958   1.329       .  D
C4957      H4959   1.080       .  S
C4958      H4960   1.087       .  S
C4961      C4962   1.356       .  D
C4961      H4963   1.086       .  S
C4962      H4964   1.086       .  S
C4965      C4966   1.355       .  D
C4965      H4967   1.083       .  S
C4966      H4968   1.085       .  S
C4969      C4970   1.351       .  D
C4969      H4971   1.087       .  S
C4970      H4972   1.087       .  S
C4973      C4974   1.380       .  D
C4973      H4975   1.085       .  S
C4974      H4976   1.088       .  S
C4977      C4978   1.346       .  D
C4977      H4979   1.087       .  S
C4978      H4980   1.087       .  S
C4981      C4982   1.334       .  D
C4981      H4983   1.088       .  S
C4982      H4984   1.086       .  S
C4985      C4986   1.365       .  D
C4985      H4987   1.086       .  S
C4986      H4988   1.086       .  S
C4989      C4990   1.340       .  D
C4989      H4991   1.088       .  S
C4990      H4992   1.087       .  S
