geometry optimzed in LAMMPS
_audit_creation_date              2020-11-30 
_audit_creation_method            'lammps2cif' 
_symmetry_space_group_name_H-M    'P1' 
_symmetry_Int_Tables_number       1 
_symmetry_cell_setting            triclinic 
loop_ 
_symmetry_equiv_pos_as_xyz 
  x,y,z 
_cell_length_a                    34.05237876 
_cell_length_b                    34.02749331118878 
_cell_length_c                    92.55401469641434 
_cell_angle_alpha                 90.01957637378288 
_cell_angle_beta                  89.83081235919288 
_cell_angle_gamma                 120.23995188828789 
loop_ 
_atom_site_label 
_atom_site_type_symbol 
_atom_site_fract_x 
_atom_site_fract_y 
_atom_site_fract_z 
_atom_site_charge 
O1          O  0.15706322  0.37357361  0.35630178    -0.88000
C2          C  0.18459391  0.27005748  0.35140020     0.88000
Mg3        Mg  0.09236790  0.36603937  0.35060905     1.58100
O4          O  0.23677236  0.35745585  0.32549442    -0.87800
O5          O  0.22902785  0.41651978  0.35080298    -0.75100
C6          C  0.04956349  0.27723773  0.28398685     0.93100
O7          O  0.08774995  0.26606276  0.35944579    -0.74900
O8          O  0.02849415  0.27579889  0.29558687    -0.82400
Mg9        Mg  0.15482960  0.32056786  0.36970864     1.58000
C10         C  0.23231123  0.32069646  0.28197367     0.93000
O11         O  0.21886175  0.36797603  0.38275203    -0.80700
H12         H  0.27891761  0.42266048  0.32039493    -0.06000
C13         C  0.11865040  0.24565570  0.31248178     0.87900
O14         O  0.12010396  0.39974003  0.32846075    -0.75200
O15         O  0.19451802  0.30980143  0.35363829    -0.87900
O16         O  0.24639589  0.31705814  0.29434906    -0.80800
C17         C  0.30929899  0.31338438  0.33457107     0.93100
C18         C  0.26149676  0.38281091  0.38240398     0.92900
Mg19       Mg  0.15552843  0.33729210  0.29757068     1.58000
O20         O  0.09201290  0.29114394  0.28400470    -0.80700
O21         O  0.22210692  0.39138862  0.30805213    -0.74900
O22         O  0.29884978  0.33186365  0.34472004    -0.80800
O23         O  0.11406211  0.33298383  0.38678330    -0.82500
O24         O  0.01181836  0.32574409  0.32250644    -0.80800
C25         C  0.24759330  0.39154954  0.31805474     0.87400
O26         O  0.11517457  0.34741878  0.31360008    -0.87900
O27         O  0.15248113  0.28384830  0.31102243    -0.88000
O28         O  0.08025868  0.24040620  0.31603932    -0.75100
Mg29       Mg  0.25837272  0.36928807  0.34756719     1.58000
O30         O  0.28527314  0.29854671  0.32318802    -0.82500
H31         H  0.18754687  0.44139100  0.35569620    -0.06200
O32         O  0.07233563  0.29924543  0.34192164    -0.87700
H33         H  0.03074039  0.23404458  0.34719320    -0.06000
H34         H  0.13797166  0.41152291  0.30728270    -0.06200
C35         C  0.06198706  0.26536916  0.34942998     0.87400
C36         C  0.19086374  0.41160538  0.35449978     0.87900
C37         C  0.12457399  0.38694089  0.31597365     0.88000
H38         H  0.12211567  0.21600578  0.31110234    -0.06200
O39         O  0.18850591  0.25665058  0.33895678    -0.75200
Mg40       Mg  0.05124040  0.28781420  0.31942763     1.58000
H41         H  0.17102129  0.24575247  0.36018047    -0.06200
C42         C  0.08024171  0.33917249  0.38627532     0.93000
O43         O  0.02412554  0.35803342  0.34430399    -0.82400
C44         C  0.00139097  0.34431128  0.33263680     0.93000
O45         O  0.28158304  0.38248896  0.37084521    -0.82400
Mg46       Mg  0.21692011  0.29107919  0.31699842     1.58200
O47         O  0.06449187  0.34314561  0.37415549    -0.80700
O48         O  0.19770889  0.32554824  0.28071906    -0.82400
C49         C  0.31826681  0.11476778  0.20116314    -0.10500
C50         C  0.31176233  0.14748242  0.20820442    -0.04400
C51         C  0.31378724  0.18440561  0.20086270    -0.10500
C52         C  0.32448782  0.19028473  0.18593519     0.10400
C53         C  0.33166558  0.15778242  0.17854925    -0.02300
C54         C  0.32815602  0.11966111  0.18612380     0.10200
C55         C  0.33433596  0.08749693  0.17843553    -0.12300
C56         C  0.34497273  0.09312200  0.16371878    -0.12300
C57         C  0.34886544  0.13059160  0.15607884     0.10200
C58         C  0.34188577  0.16317021  0.16350458    -0.02300
C59         C  0.32762691  0.22734157  0.17816552    -0.12400
C60         C  0.33862770  0.23312796  0.16347433    -0.12400
C61         C  0.34588845  0.20153591  0.15594872     0.10400
C62         C  0.35729796  0.20710572  0.14106025    -0.10500
C63         C  0.36286807  0.17413973  0.13395387    -0.04400
C64         C  0.35977354  0.13674307  0.14119038    -0.10500
H65         H  0.33128111  0.05780120  0.18377585     0.07700
H66         H  0.34993397  0.06769657  0.15831805     0.07700
H67         H  0.32180667  0.25239893  0.18341633     0.07900
H68         H  0.34106284  0.26238761  0.15799199     0.09700
H69         H  0.30387977  0.14357760  0.21967033     0.04300
H70         H  0.37195329  0.17880194  0.12256768     0.04300
C71         C  0.77836960  0.09378622  0.19604746    -0.10500
C72         C  0.81621163  0.12718869  0.20338970    -0.04400
C73         C  0.85124363  0.16477653  0.19628302    -0.10500
C74         C  0.84753246  0.17046149  0.18123888     0.10400
C75         C  0.80957516  0.13613504  0.17353255    -0.02300
C76         C  0.77521061  0.09733984  0.18094850     0.10200
C77         C  0.73872758  0.06316460  0.17311024    -0.12300
C78         C  0.73570909  0.06688901  0.15822331    -0.12300
C79         C  0.76878127  0.10518776  0.15066423     0.10200
C80         C  0.80585731  0.14051474  0.15838843    -0.02300
C81         C  0.88012097  0.20923664  0.17371425    -0.12400
C82         C  0.87515325  0.21467258  0.15893504    -0.12400
C83         C  0.83846101  0.18064476  0.15106813     0.10400
C84         C  0.83283021  0.18538432  0.13609974    -0.10500
C85         C  0.79756681  0.14926750  0.12861719    -0.04400
C86         C  0.76527825  0.10969064  0.13561377    -0.10500
H87         H  0.71222019  0.03313722  0.17845417     0.07700
H88         H  0.70683854  0.03965078  0.15270337     0.07700
H89         H  0.90920650  0.23602075  0.17930367     0.07900
H90         H  0.90061957  0.24545089  0.15363019     0.07900
H91         H  0.81889556  0.12335282  0.21493553     0.04300
H92         H  0.79379290  0.15299941  0.11713172     0.04300
O93         O  0.16587639  0.85194602  0.30895939    -0.88000
C94         C  0.13089328  0.72035452  0.31597870     0.88000
Mg95       Mg  0.23118938  0.90683387  0.31514712     1.58100
O96         O  0.07785542  0.76220368  0.33913078    -0.87800
O97         O  0.09387173  0.82776896  0.31252029    -0.75100
C98         C  0.25725942  0.86646562  0.38356718     0.93100
O99         O  0.23108481  0.80947616  0.30844786    -0.74900
O100        O  0.28030303  0.88356218  0.37208460    -0.82400
Mg101      Mg  0.16721123  0.79956515  0.29646321     1.58000
C102        C  0.07082997  0.73448325  0.38345666     0.93000
O103        O  0.10673759  0.78553614  0.28223434    -0.80700
H104        H  0.03738962  0.78830509  0.34210004    -0.06000
C105        C  0.18886022  0.76339337  0.35626126     0.87900
O106        O  0.20078053  0.91866753  0.33581415    -0.75200
O107        O  0.12283583  0.75055122  0.31234826    -0.87900
O108        O  0.05885476  0.71413940  0.37130081    -0.80800
C109        C  0.00203511  0.64553764  0.33074024     0.93100
C110        C  0.06371721  0.75996868  0.28179554     0.92900
Mg111      Mg  0.15422733  0.82406392  0.36808948     1.58000
O112        O  0.21416683  0.84061560  0.38334452    -0.80700
O113        O  0.09136208  0.81331023  0.35566497    -0.74900
O114        O  0.01512010  0.67365796  0.32024582    -0.80800
O115        O  0.21149875  0.85285798  0.27965249    -0.82500
O116        O  0.30583805  0.94881704  0.34470023    -0.80800
C117        C  0.06722952  0.78735827  0.34552381     0.87400
O118        O  0.19945315  0.87143718  0.35211873    -0.87900
O119        O  0.15646302  0.77013243  0.35635156    -0.88000
O120        O  0.22869749  0.79465847  0.35296208    -0.75100
Mg121      Mg  0.06012510  0.75094349  0.31669263     1.58000
O122        O  0.02382078  0.65474239  0.34258040    -0.82500
H123        H  0.14008392  0.89309771  0.30736459    -0.06200
O124        O  0.24435109  0.85847889  0.32572480    -0.87700
H125        H  0.28438361  0.83205281  0.32227495    -0.06000
H126        H  0.17942779  0.91623819  0.35646644    -0.06200
C127        C  0.25478675  0.83366374  0.31899927     0.87400
C128        C  0.13379262  0.85910792  0.30935706     0.87900
C129        C  0.19303190  0.90277777  0.34858782     0.88000
H130        H  0.18286593  0.72967459  0.35858913    -0.06200
O131        O  0.12386407  0.70476045  0.32878912    -0.75200
Mg132      Mg  0.26204284  0.87110358  0.34830998     1.58000
H133        H  0.14550119  0.70776930  0.30814794    -0.06200
C134        C  0.24795745  0.89094058  0.28113696     0.93000
O135        O  0.29973241  0.96420465  0.32166297    -0.82400
C136        C  0.32025987  0.97490552  0.33370114     0.93000
O137        O  0.04066994  0.73992812  0.29301838    -0.82400
Mg138      Mg  0.09212716  0.71417769  0.34955944     1.58200
O139        O  0.26486736  0.90497962  0.29361999    -0.80700
O140        O  0.10646966  0.77337688  0.38479527    -0.82400
O141        O  0.67281666  0.84507394  0.35760920    -0.88000
C142        C  0.57944398  0.71831158  0.34272884     0.88000
Mg143      Mg  0.66963375  0.90568466  0.35285429     1.58100
O144        O  0.68626450  0.76856876  0.32557131    -0.87800
O145        O  0.71939533  0.81860130  0.35611068    -0.75100
C146        C  0.64272910  0.90144744  0.28201362     0.93100
O147        O  0.56731871  0.80584087  0.35109352    -0.74900
O148        O  0.63443031  0.91674917  0.29344962    -0.82400
Mg149      Mg  0.61087254  0.78726648  0.36538102     1.58000
C150        C  0.68947498  0.76696196  0.28005377     0.93000
O151        O  0.64548964  0.76378840  0.38196218    -0.80700
H152        H  0.75376092  0.79616097  0.32626615    -0.06000
C153        C  0.58864910  0.78510208  0.30469409     0.87900
O154        O  0.72265617  0.92561895  0.33472580    -0.75200
O155        O  0.61538549  0.74661617  0.34848301    -0.87900
O156        O  0.67505391  0.73925963  0.29070135    -0.80800
C157        C  0.63640309  0.64851722  0.32849003     0.93100
C158        C  0.65840475  0.73459476  0.38265351     0.92900
Mg159      Mg  0.68831970  0.84707350  0.29868139     1.58000
O160        O  0.65235122  0.86982320  0.28239721    -0.80700
O161        O  0.73237071  0.82834806  0.31267880    -0.74900
O162        O  0.64445493  0.67052222  0.34030881    -0.80800
O163        O  0.60625436  0.82932167  0.38325520    -0.82500
O164        O  0.65819051  0.96589589  0.32387009    -0.80800
C165        C  0.72511834  0.79709477  0.32164882     0.87400
O166        O  0.68446003  0.88745952  0.31577382    -0.87900
O167        O  0.62654510  0.78922039  0.30638399    -0.88000
O168        O  0.58084313  0.81683201  0.30800188    -0.75100
Mg169      Mg  0.67772104  0.74506685  0.34772525     1.58000
O170        O  0.63304588  0.66463859  0.31642726    -0.82500
H171        H  0.73788550  0.88164143  0.36362479    -0.06200
O172        O  0.61359043  0.86616952  0.33842990    -0.87700
H173        H  0.54605926  0.83783836  0.33738832    -0.06000
H174        H  0.75133743  0.93149521  0.31499158    -0.06200
C175        C  0.57466986  0.83721189  0.34216154     0.87400
C176        C  0.71089345  0.84980465  0.35941602     0.87900
C177        C  0.72058543  0.91571351  0.32142712     0.88000
H178        H  0.56125095  0.75344262  0.30051443    -0.06200
O179        O  0.57757191  0.70880714  0.32939162    -0.75200
Mg180      Mg  0.62313687  0.89051901  0.31652715     1.58000
H181        H  0.54860450  0.70219281  0.34911078    -0.06200
C182        C  0.61002122  0.86836145  0.38345556     0.93000
O183        O  0.66662522  0.96978358  0.34780897    -0.82400
C184        C  0.66558962  0.98735360  0.33577743     0.93000
O185        O  0.66798978  0.71980439  0.37129427    -0.82400
Mg186      Mg  0.63002035  0.72862387  0.31107475     1.58200
O187        O  0.62433754  0.89510438  0.37262145    -0.80700
O188        O  0.69306319  0.80586128  0.28063444    -0.82400
C189        C  0.89568595  0.72664362  0.19104642    -0.10500
C190        C  0.86252266  0.73285275  0.19775258    -0.04400
C191        C  0.82286845  0.72382670  0.19062004    -0.10500
C192        C  0.81679102  0.71012607  0.17599295     0.10400
C193        C  0.85104339  0.70510700  0.16883728    -0.02300
C194        C  0.89047222  0.71289732  0.17645228     0.10200
C195        C  0.92334291  0.70653255  0.16933474    -0.12300
C196        C  0.91777760  0.69290464  0.15491133    -0.12300
C197        C  0.87917895  0.68523858  0.14711790     0.10200
C198        C  0.84532425  0.69114392  0.15416876    -0.02300
C199        C  0.77745605  0.70093910  0.16840766    -0.12400
C200        C  0.77187750  0.68736736  0.15398031    -0.12400
C201        C  0.80549108  0.68256668  0.14664445     0.10400
C202        C  0.80006689  0.66860369  0.13204382    -0.10500
C203        C  0.83399594  0.66364017  0.12519993    -0.04400
C204        C  0.87324640  0.67154174  0.13246454    -0.10500
H205        H  0.95374158  0.71226440  0.17487750     0.07700
H206        H  0.94403778  0.68846506  0.14988827     0.07700
H207        H  0.75076281  0.70433349  0.17359020     0.07900
H208        H  0.74082589  0.68046924  0.14863434     0.07900
H209        H  0.86646723  0.74242935  0.20907849     0.04300
H210        H  0.82962163  0.65315263  0.11396507     0.04300
O211        O  0.52923375  0.02172806  0.97588341    -0.88000
C212        C  0.40012832  0.93427070  0.99014844     0.88000
Mg213      Mg  0.58598307  0.01187741  0.98001204     1.58100
O214        O  0.45649660  0.03860628  0.00869849    -0.87800
O215        O  0.50861705  0.07276958  0.97848961    -0.75100
C216        C  0.57741044  0.97491947  0.05033480     0.93100
O217        O  0.48109973  0.91391127  0.98103668    -0.74900
O218        O  0.58986103  0.96474706  0.03864383    -0.82400
Mg219      Mg  0.46867945  0.96362487  0.96771988     1.58000
C220        C  0.45098930  0.03349533  0.05406246     0.93000
O221        O  0.45166267  0.00526718  0.95215498    -0.80700
H222        H  0.48841880  0.10655539  0.00888634    -0.06000
C223        C  0.46261203  0.93262570  0.02790242     0.87900
O224        O  0.60944540  0.06281666  0.99884693    -0.75200
O225        O  0.43042609  0.97022736  0.98490460    -0.87900
O226        O  0.42514865  0.02313479  0.04308142    -0.80800
C227        C  0.33699874  0.99539895  0.00589120     0.93100
C228        C  0.42535170  0.02167915  0.95175298     0.92900
Mg229      Mg  0.53030778  0.03032138  0.03502640     1.58000
O230        O  0.54928054  0.98926695  0.05043167    -0.80700
O231        O  0.51689482  0.07975588  0.02189422    -0.74900
O232        O  0.36016383  0.00619537  0.99420247    -0.80800
O233        O  0.50761873  0.95605385  0.94945911    -0.82500
O234        O  0.63995330  0.98868531  0.00824198    -0.80800
C235        C  0.48676659  0.07605872  0.01304661     0.87400
O236        O  0.56909155  0.02453425  0.01756726    -0.87900
O237        O  0.47042869  0.97206864  0.02664366    -0.88000
O238        O  0.49157280  0.92146769  0.02412358    -0.75100
Mg239      Mg  0.43453039  0.03525742  0.98670178     1.58000
O240        O  0.35214274  0.98910701  0.01769911    -0.82500
H241        H  0.57034208  0.08715257  0.97076849    -0.06200
O242        O  0.54241883  0.95516226  0.99383484    -0.87700
H243        H  0.50963741  0.88719215  0.99404379    -0.06000
H244        H  0.61740532  0.09004202  0.01888989    -0.06200
C245        C  0.51156210  0.91765000  0.98974349     0.87400
C246        C  0.53743358  0.06135315  0.97474747     0.87900
C247        C  0.59953913  0.06016452  0.01217948     0.88000
H248        H  0.42993778  0.90677276  0.03202319    -0.06200
O249        O  0.39052268  0.93071447  0.00350157    -0.75200
Mg250      Mg  0.56533034  0.95950274  0.01566102     1.58000
H251        H  0.38244587  0.90470518  0.98328986    -0.06200
C252        C  0.54491835  0.95621407  0.94886623     0.93000
O253        O  0.64611886  0.00201986  0.98449958    -0.82400
C254        C  0.66167824  0.99662877  0.99634861     0.93000
O255        O  0.41110417  0.03115333  0.96325177    -0.82400
Mg256      Mg  0.41311462  0.98094110  0.02237399     1.58200
O257        O  0.57211201  0.96825058  0.95953590    -0.80700
O258        O  0.48937433  0.03568745  0.05350307    -0.82400
O259        O  0.53701154  0.50113333  0.02428361    -0.88000
C260        C  0.40676549  0.47224495  0.01869104     0.88000
Mg261      Mg  0.59383369  0.56531254  0.01760598     1.58100
O262        O  0.44410499  0.41811402  0.99436403    -0.87800
O263        O  0.50943778  0.42860320  0.02048224    -0.75100
C264        C  0.55019280  0.59992569  0.95026860     0.93100
O265        O  0.49868238  0.56969069  0.02561980    -0.74900
O266        O  0.56985210  0.62243732  0.96162130    -0.82400
Mg267      Mg  0.48634859  0.50460325  0.03738454     1.58000
C268        C  0.41222871  0.41569833  0.95020508     0.93000
O269        O  0.46905041  0.44205145  0.05197239    -0.80700
H270        H  0.46802456  0.37624710  0.99036257    -0.06000
C271        C  0.44899875  0.53292880  0.97860354     0.87900
O272        O  0.60111259  0.53444669  0.99638632    -0.75200
O273        O  0.43616042  0.46249512  0.02174306    -0.87900
O274        O  0.39441041  0.40289089  0.96268831    -0.80800
C275        C  0.32712363  0.34665829  0.00360422     0.93100
C276        C  0.44093012  0.39922737  0.05208251     0.92900
Mg277      Mg  0.50492175  0.49569259  0.96519779     1.58000
O278        O  0.52166487  0.55738839  0.95078229    -0.80700
O279        O  0.49277688  0.43091398  0.97697608    -0.74900
O280        O  0.35547700  0.35859650  0.01394726    -0.80800
O281        O  0.54025662  0.54874891  0.05370562    -0.82500
O282        O  0.63586060  0.64427501  0.98873638    -0.80800
C283        C  0.46777027  0.40682732  0.98735869     0.87400
O284        O  0.55511420  0.53856718  0.98079629    -0.87900
O285        O  0.45410969  0.49953396  0.97807678    -0.88000
O286        O  0.48172247  0.57216901  0.98168457    -0.75100
Mg287      Mg  0.43296229  0.39881482  0.01683760     1.58000
O288        O  0.33715816  0.36817059  0.99167854    -0.82500
H289        H  0.57560077  0.47231881  0.02531657    -0.06200
O290        O  0.54703159  0.58309594  0.00804194    -0.87700
H291        H  0.52258351  0.62440415  0.01226676    -0.06000
H292        H  0.59625566  0.51484384  0.97545068    -0.06200
C293        C  0.52322668  0.59395224  0.01517069     0.87400
C294        C  0.54217286  0.46778609  0.02360879     0.87900
C295        C  0.58484197  0.52920654  0.98374107     0.88000
H296        H  0.41561383  0.52840386  0.97679824    -0.06200
O297        O  0.39053011  0.46684836  0.00602778    -0.75200
Mg298      Mg  0.55822903  0.60251863  0.98550047     1.58000
H299        H  0.39553238  0.48699128  0.02691225    -0.06200
C300        C  0.57912709  0.58413570  0.05211475     0.93000
O301        O  0.65441832  0.63276734  0.01076268    -0.82400
C302        C  0.66431794  0.65524945  0.99902569     0.93000
O303        O  0.42156460  0.37825431  0.04052602    -0.82400
Mg304      Mg  0.39736384  0.43565592  0.98477441     1.58200
O305        O  0.59660093  0.59811271  0.03962548    -0.80700
O306        O  0.45145353  0.45081562  0.94864974    -0.82400
O307        O  0.04194512  0.49713396  0.97736986    -0.88000
C308        C  0.94326922  0.53012139  0.98251515     0.88000
Mg309      Mg  0.03165025  0.43166705  0.98372131     1.58100
O310        O  0.03255544  0.57989535  0.00781435    -0.87800
O311        O  0.08851715  0.56898060  0.98191711    -0.75100
C312        C  0.94363985  0.39291751  0.05029837     0.93100
O313        O  0.93437240  0.43155393  0.97503336    -0.74900
O314        O  0.94152716  0.37117270  0.03881194    -0.82400
Mg315      Mg  0.99000659  0.49675737  0.96389895     1.58000
C316        C  0.99990745  0.57947567  0.05178850     0.93000
O317        O  0.03885091  0.56010638  0.94992399    -0.80700
H318        H  0.09860475  0.61873030  0.01240154    -0.06000
C319        C  0.91800785  0.46533356  0.02195779     0.87900
O320        O  0.06739532  0.45967929  0.00542792    -0.75200
O321        O  0.98245566  0.53906584  0.97973693    -0.87900
O322        O  0.99511516  0.59325864  0.03944100    -0.80800
C323        C  0.99146587  0.65504118  0.99886214     0.93100
C324        C  0.05583919  0.60327609  0.95021573     0.92900
Mg325      Mg  0.00929429  0.49820789  0.03634657     1.58000
O326        O  0.96017786  0.43589648  0.05013344    -0.80700
O327        O  0.06504792  0.56287541  0.02517072    -0.74900
O328        O  0.01005897  0.64472662  0.98870201    -0.80800
O329        O  0.99847394  0.45194048  0.94730173    -0.82500
O330        O  0.98830063  0.34966559  0.01196773    -0.80800
C331        C  0.06650949  0.58875561  0.01503396     0.87400
O332        O  0.01603351  0.45546359  0.02061884    -0.87900
O333        O  0.95712549  0.49780033  0.02310316    -0.88000
O334        O  0.91028979  0.42596038  0.01853697    -0.75100
Mg335      Mg  0.04411385  0.60127603  0.98548742     1.58000
O336        O  0.97679634  0.63142349  0.01033708    -0.82500
H337        H  0.10941041  0.52427584  0.97695726    -0.06200
O338        O  0.96616532  0.41460353  0.99264186    -0.87700
H339        H  0.90036005  0.37559721  0.98775360    -0.06000
H340        H  0.08002439  0.47684977  0.02659602    -0.06200
C341        C  0.93250953  0.40568699  0.98524918     0.87400
C342        C  0.08099192  0.52967752  0.97850457     0.87900
C343        C  0.05515254  0.46395726  0.01802070     0.88000
H344        H  0.88969250  0.47088978  0.02347953    -0.06200
O345        O  0.93139376  0.53459481  0.99515413    -0.75200
Mg346      Mg  0.95432426  0.39325246  0.01505069     1.58000
H347        H  0.91803184  0.51677322  0.97404623    -0.06200
C348        C  0.00118787  0.41616666  0.94875508     0.93000
O349        O  0.02129492  0.36272275  0.99024822    -0.82400
C350        C  0.00594824  0.33882478  0.00165449     0.93000
O351        O  0.05694672  0.62367337  0.96188421    -0.82400
Mg352      Mg  0.96729983  0.56300985  0.01686075     1.58200
O353        O  0.00460133  0.40181554  0.96116080    -0.80700
O354        O  0.00229900  0.54350619  0.05306302    -0.82400
O355        O  0.35994981  0.20222732  0.69183905    -0.88000
C356        C  0.26844819  0.07611897  0.67544507     0.88000
Mg357      Mg  0.35685099  0.26312923  0.68749043     1.58100
O358        O  0.37667722  0.12888600  0.65906695    -0.87800
O359        O  0.40673502  0.17598827  0.69009830    -0.75100
C360        C  0.33414948  0.26353253  0.61610591     0.93100
O361        O  0.25480177  0.16316810  0.68428390    -0.74900
O362        O  0.32586387  0.27875660  0.62757588    -0.82400
Mg363      Mg  0.29716688  0.14322119  0.69857638     1.58000
C364        C  0.38156403  0.12991691  0.61361468     0.93000
O365        O  0.33003232  0.11786149  0.71511222    -0.80700
H366        H  0.44413573  0.15642671  0.66010879    -0.06000
C367        C  0.27971761  0.14621801  0.63820679     0.87900
O368        O  0.41098485  0.28444092  0.66957359    -0.75200
O369        O  0.30384273  0.10470536  0.68137838    -0.87900
O370        O  0.36753835  0.10215928  0.62421371    -0.80800
C371        C  0.32872219  0.00896407  0.66084560     0.93100
C372        C  0.34201880  0.08794140  0.71544969     0.92900
Mg373      Mg  0.37965538  0.20879931  0.63269814     1.58000
O374        O  0.34425594  0.23225561  0.61646556    -0.80700
O375        O  0.42342272  0.18947436  0.64662908    -0.74900
O376        O  0.33391376  0.02894888  0.67294163    -0.80800
O377        O  0.28994221  0.18278351  0.71675367    -0.82500
O378        O  0.34812063  0.32549989  0.65856433    -0.80800
C379        C  0.41573676  0.15767132  0.65542065     0.87400
O380        O  0.37484556  0.24794392  0.65010725    -0.87900
O381        O  0.31757242  0.15031230  0.63999240    -0.88000
O382        O  0.27171531  0.17774616  0.64162668    -0.75100
Mg383      Mg  0.36624718  0.10324991  0.68094837     1.58000
O384        O  0.32661971  0.02651846  0.64892577    -0.82500
H385        H  0.42464276  0.23815865  0.69828401    -0.06200
O386        O  0.30221924  0.22491403  0.67245389    -0.87700
H387        H  0.23484407  0.19694001  0.67086380    -0.06000
H388        H  0.44175771  0.29201414  0.65011748    -0.06200
C389        C  0.26298197  0.19565027  0.67574065     0.87400
C390        C  0.39792790  0.20676516  0.69372521     0.87900
C391        C  0.41035111  0.27563776  0.65621223     0.88000
H392        H  0.25254958  0.11479375  0.63382233    -0.06200
O393        O  0.26754271  0.06723879  0.66209523    -0.75200
Mg394      Mg  0.31345169  0.25088113  0.65064301     1.58000
H395        H  0.23733870  0.05913034  0.68167355    -0.06200
C396        C  0.29438831  0.22203209  0.71777552     0.93000
O397        O  0.35316787  0.32691591  0.68263072    -0.82400
C398        C  0.35327577  0.34546703  0.67066417     0.93000
O399        O  0.35409136  0.07558924  0.70408341    -0.82400
Mg400      Mg  0.32159047  0.08968077  0.64419589     1.58200
O401        O  0.31081796  0.25101787  0.70751517    -0.80700
O402        O  0.38477146  0.16864424  0.61431405    -0.82400
C403        C  0.19779490  0.32040764  0.86831133    -0.10500
C404        C  0.16397846  0.32496456  0.87540859    -0.04400
C405        C  0.12676113  0.32183626  0.86800422    -0.10500
C406        C  0.12249867  0.31311817  0.85297683     0.10400
C407        C  0.15611605  0.30755306  0.84563903    -0.02300
C408        C  0.19361546  0.31061222  0.85335128     0.10200
C409        C  0.22635986  0.30487425  0.84584578    -0.12300
C410        C  0.22266389  0.29661090  0.83100122    -0.12300
C411        C  0.18667192  0.29485998  0.82311299     0.10200
C412        C  0.15300258  0.30034820  0.83047158    -0.02300
C413        C  0.08624827  0.31090655  0.84505102    -0.12400
C414        C  0.08318972  0.30382450  0.83013888    -0.12400
C415        C  0.11629046  0.29875011  0.82266119     0.10400
C416        C  0.11426006  0.29261984  0.80752244    -0.10500
C417        C  0.14772476  0.28766905  0.80052344    -0.04400
C418        C  0.18310058  0.28770985  0.80802296    -0.10500
H419        H  0.25516745  0.30673514  0.85141411     0.07700
H420        H  0.24861873  0.29232088  0.82568412     0.07700
H421        H  0.06010912  0.31500169  0.85032675     0.07900
H422        H  0.05491441  0.30275592  0.82446239     0.07900
H423        H  0.16777898  0.33317853  0.88683618     0.04300
H424        H  0.14536158  0.28215261  0.78891416     0.04300
C425        C  0.24568964  0.88665714  0.86492454    -0.10500
C426        C  0.21322690  0.84688120  0.87187798    -0.04400
C427        C  0.17675910  0.81161710  0.86448300    -0.10500
C428        C  0.17065621  0.81724446  0.84959876     0.10400
C429        C  0.20347242  0.85737552  0.84228205    -0.02300
C430        C  0.24140163  0.89193572  0.84993184     0.10200
C431        C  0.27434583  0.93033804  0.84234733    -0.12300
C432        C  0.27014658  0.93517278  0.82755890    -0.12300
C433        C  0.23274726  0.90190961  0.81980546     0.10200
C434        C  0.19873290  0.86275516  0.82723299    -0.02300
C435        C  0.13307352  0.78410203  0.84181836    -0.12400
C436        C  0.12731705  0.79040921  0.82717507    -0.12400
C437        C  0.15979390  0.82927913  0.81966966     0.10400
C438        C  0.15486262  0.83590406  0.80478514    -0.10500
C439        C  0.18953684  0.87365109  0.79764333    -0.04400
C440        C  0.22820205  0.90664491  0.80479466    -0.10500
H441        H  0.30399664  0.95686916  0.84777193     0.07700
H442        H  0.29650681  0.96530059  0.82220917     0.07700
H443        H  0.10751039  0.75332328  0.84708771     0.07900
H444        H  0.09756867  0.76423732  0.82166974     0.07900
H445        H  0.21718737  0.84268038  0.88331222     0.04300
H446        H  0.18565668  0.87819057  0.78622394     0.04300
O447        O  0.84477166  0.21913943  0.64323808    -0.88000
C448        C  0.82045024  0.08857897  0.64705458     0.88000
Mg449      Mg  0.90721032  0.27757266  0.65016288     1.58100
O450        O  0.76209268  0.11850827  0.67223689    -0.87800
O451        O  0.77165161  0.18693174  0.64714179    -0.75100
C452        C  0.94267410  0.22450446  0.71609104     0.93100
O453        O  0.91727312  0.18508649  0.64075421    -0.74900
O454        O  0.96558559  0.24616508  0.70499159    -0.82400
Mg455      Mg  0.85142460  0.17125794  0.62955202     1.58000
C456        C  0.76100862  0.08372569  0.71586120     0.93000
O457        O  0.78930678  0.15401235  0.61543578    -0.80700
H458        H  0.71844508  0.13992259  0.67665194    -0.06000
C459        C  0.87961019  0.12778772  0.68662332     0.87900
O460        O  0.87562513  0.28008069  0.67182467    -0.75200
O461        O  0.81000630  0.11791886  0.64476108    -0.87900
O462        O  0.74943340  0.06568404  0.70338426    -0.80800
C463        C  0.69416823  0.00252165  0.66202735     0.93100
C464        C  0.74707224  0.12443343  0.61490381     0.92900
Mg465      Mg  0.83871450  0.17930560  0.70128602     1.58000
O466        O  0.90007388  0.19656440  0.71554412    -0.80700
O467        O  0.77348067  0.16603738  0.68979751    -0.74900
O468        O  0.70521828  0.03187136  0.65194720    -0.80800
O469        O  0.89453942  0.22756021  0.61347174    -0.82500
O470        O  0.98636529  0.31730372  0.67888946    -0.80800
C471        C  0.74967489  0.14081561  0.67947164     0.87400
O472        O  0.88097968  0.23206982  0.68619191    -0.87900
O473        O  0.84508124  0.13077616  0.68785961    -0.88000
O474        O  0.91798015  0.16210221  0.68359050    -0.75100
Mg475      Mg  0.74431252  0.11026483  0.64976371     1.58000
O476        O  0.71637598  0.01144540  0.67376851    -0.82500
H477        H  0.81233737  0.25440161  0.64318970    -0.06200
O478        O  0.92834917  0.23169332  0.65858432    -0.87700
H479        H  0.97261234  0.21137233  0.65377079    -0.06000
H480        H  0.85584988  0.27090735  0.69283881    -0.06200
C481        C  0.94108093  0.21006987  0.65112449     0.87400
C482        C  0.80994476  0.22164459  0.64430934     0.87900
C483        C  0.87072540  0.26161542  0.68410844     0.88000
H484        H  0.87679969  0.09483612  0.68769630    -0.06200
O485        O  0.81475501  0.06996278  0.65937059    -0.75200
Mg486      Mg  0.94640511  0.23889690  0.68109892     1.58000
H487        H  0.83586287  0.07935356  0.63847074    -0.06200
C488        C  0.92745568  0.26801401  0.61507617     0.93000
O489        O  0.97324628  0.33899313  0.65751805    -0.82400
C490        C  0.99627257  0.34723860  0.66907025     0.93000
O491        O  0.72546176  0.10180851  0.62601805    -0.82400
Mg492      Mg  0.78253833  0.07273095  0.68097996     1.58200
O493        O  0.93948742  0.28608999  0.62755763    -0.80700
O494        O  0.79463495  0.12385446  0.71742411    -0.82400
O495        O  0.84837786  0.73319036  0.68991221    -0.88000
C496        C  0.88320247  0.63526575  0.68530270     0.88000
Mg497      Mg  0.78293179  0.72276626  0.68347625     1.58100
O498        O  0.93229286  0.72455916  0.65972066    -0.87800
O499        O  0.92055647  0.78011114  0.68591358    -0.75100
C500        C  0.74365446  0.63107757  0.61771980     0.93100
O501        O  0.78294555  0.62538139  0.69234267    -0.74900
O502        O  0.72173495  0.63021857  0.62902185    -0.82400
Mg503      Mg  0.84748052  0.68104439  0.70343811     1.58000
C504        C  0.92775326  0.68599452  0.61542351     0.93000
O505        O  0.90955550  0.72895434  0.71762304    -0.80700
H506        H  0.96976126  0.79052859  0.65464976    -0.06000
C507        C  0.81719607  0.60826594  0.64637322     0.87900
O508        O  0.81125154  0.75847538  0.66173286    -0.75200
O509        O  0.89045726  0.67403192  0.68774745    -0.87900
O510        O  0.94443324  0.68433745  0.62762189    -0.80800
C511        C  0.00844219  0.68535099  0.66884576     0.93100
C512        C  0.95209185  0.74305847  0.71791993     0.92900
Mg513      Mg  0.84881887  0.69818559  0.63132262     1.58000
O514        O  0.78655733  0.64772064  0.61799996    -0.80700
O515        O  0.91387664  0.75515302  0.64208639    -0.74900
O516        O  0.99592010  0.70116469  0.67925519    -0.80800
O517        O  0.80220333  0.68932645  0.71988162    -0.82500
O518        O  0.70095369  0.67888840  0.65545372    -0.80800
C519        C  0.94017698  0.75792973  0.65226981     0.87400
O520        O  0.80658416  0.70625434  0.64686977    -0.87900
O521        O  0.84960834  0.64737260  0.64500222    -0.88000
O522        O  0.77765222  0.60064814  0.64953880    -0.75100
Mg523      Mg  0.95289033  0.73559694  0.68234885     1.58000
O524        O  0.98574376  0.67105386  0.65719649    -0.82500
H525        H  0.87541152  0.80068250  0.69060773    -0.06200
O526        O  0.76592547  0.65726349  0.67479056    -0.87700
H527        H  0.72712361  0.59136247  0.67970272    -0.06000
H528        H  0.82816154  0.77007562  0.64049388    -0.06200
C529        C  0.75706750  0.62355609  0.68218969     0.87400
C530        C  0.88095680  0.77236236  0.68903461     0.87900
C531        C  0.81526733  0.74558460  0.64921798     0.88000
H532        H  0.82284424  0.57988816  0.64517497    -0.06200
O533        O  0.88881038  0.62348158  0.67279686    -0.75200
Mg534      Mg  0.74440733  0.64457404  0.65261756     1.58000
H535        H  0.87070789  0.61044692  0.69393226    -0.06200
C536        C  0.76634167  0.69175273  0.71824214     0.93000
O537        O  0.71411317  0.71271980  0.67693468    -0.82400
C538        C  0.69050583  0.69776987  0.66549031     0.93000
O539        O  0.97384340  0.74583826  0.70633571    -0.82400
Mg540      Mg  0.91594932  0.65895843  0.65085276     1.58200
O541        O  0.75233572  0.69463033  0.70577313    -0.80700
O542        O  0.89180807  0.68843627  0.61461985    -0.82400
C543        C  0.63391243  0.86125983  0.86032632    -0.10500
C544        C  0.62912071  0.82360913  0.86781358    -0.04400
C545        C  0.63189012  0.78879539  0.86088197    -0.10500
C546        C  0.64108987  0.79205125  0.84587456     0.10400
C547        C  0.64666627  0.83065773  0.83809125    -0.02300
C548        C  0.64318533  0.86553746  0.84536813     0.10200
C549        C  0.64855574  0.90327823  0.83752227    -0.12300
C550        C  0.65729068  0.90689039  0.82270089    -0.12300
C551        C  0.66046432  0.87264076  0.81522424     0.10200
C552        C  0.65505488  0.83408882  0.82298610    -0.02300
C553        C  0.64447527  0.75791291  0.83844603    -0.12400
C554        C  0.65354732  0.76166589  0.82363036    -0.12400
C555        C  0.65876203  0.79932999  0.81571854     0.10400
C556        C  0.66798873  0.80353220  0.80072328    -0.10500
C557        C  0.67258769  0.84128943  0.79322897    -0.04400
C558        C  0.66954926  0.87603423  0.80021200    -0.10500
H559        H  0.64619446  0.93038091  0.84283326     0.07700
H560        H  0.66140803  0.93669553  0.81711762     0.07700
H561        H  0.64038532  0.72818625  0.84408459     0.07900
H562        H  0.65613991  0.73463285  0.81837932     0.07900
H563        H  0.62116301  0.82042728  0.87928200     0.04300
H564        H  0.68040557  0.84453181  0.78176138     0.04300
C565        C  0.01319313  0.48017057  0.47062137    -0.10500
C566        C  0.00835337  0.51295121  0.46300279    -0.04400
C567        C  0.00298208  0.54629516  0.47003751    -0.10500
C568        C  0.00164756  0.54699555  0.48529707     0.10400
C569        C  0.00519296  0.51329327  0.49328996    -0.02300
C570        C  0.01074041  0.47953776  0.48594997     0.10200
C571        C  0.01411230  0.44661007  0.49414142    -0.12300
C572        C  0.01125561  0.44617831  0.50922100    -0.12300
C573        C  0.00610070  0.47936829  0.51666849     0.10200
C574        C  0.00364217  0.51366161  0.50865995    -0.02300
C575        C  0.99685898  0.58039411  0.49274386    -0.12400
C576        C  0.99564452  0.58091904  0.50781839    -0.12400
C577        C  0.99886842  0.54787668  0.51598340     0.10400
C578        C  0.99731530  0.54787967  0.53129240    -0.10500
C579        C  0.99936916  0.51357736  0.53894747    -0.04400
C580        C  0.00273214  0.47898681  0.53192782    -0.10500
H581        H  0.01853202  0.42061010  0.48891909     0.07700
H582        H  0.01354315  0.41982231  0.51504438     0.07700
H583        H  0.99394786  0.60643123  0.48693375     0.07900
H584        H  0.99199829  0.60736834  0.51305024     0.07900
H585        H  0.01043784  0.51352326  0.45128879     0.04300
H586        H  0.99652745  0.51278660  0.55064267     0.04300
C587        C  0.45955978  0.48443818  0.46953114    -0.10500
C588        C  0.49718671  0.52093926  0.46301545    -0.04400
C589        C  0.53641016  0.54999651  0.47076340    -0.10500
C590        C  0.53902885  0.54080890  0.48560112     0.10400
C591        C  0.50086133  0.50339016  0.49240750    -0.02300
C592        C  0.46087640  0.47525550  0.48434084     0.10200
C593        C  0.42326833  0.43906136  0.49128030    -0.12300
C594        C  0.42469864  0.43036141  0.50593849    -0.12300
C595        C  0.46375406  0.45758271  0.51416556     0.10200
C596        C  0.50232122  0.49447038  0.50735783    -0.02300
C597        C  0.57808762  0.56798242  0.49385800    -0.12400
C598        C  0.57990851  0.55857134  0.50849250    -0.12400
C599        C  0.54238069  0.52225022  0.51545643     0.10400
C600        C  0.54358355  0.51245708  0.53028553    -0.10500
C601        C  0.50510791  0.47669829  0.53679057    -0.04400
C602        C  0.46549156  0.44904061  0.52905162    -0.10500
H603        H  0.39236522  0.41718574  0.48539350     0.07700
H604        H  0.39487465  0.40213753  0.51081628     0.07700
H605        H  0.60763364  0.59657514  0.48901039     0.07900
H606        H  0.61088598  0.58022523  0.51437567     0.07900
H607        H  0.49522964  0.52794052  0.45167223     0.04300
H608        H  0.50633680  0.46965545  0.54817296     0.04300
C609        C  0.52943308  0.98270604  0.46911132    -0.10500
C610        C  0.49019763  0.97506858  0.46200777    -0.04400
C611        C  0.45885416  0.98438399  0.46850172    -0.10500
C612        C  0.46688941  0.00245170  0.48263475     0.10400
C613        C  0.50699136  0.01078446  0.48999987    -0.02300
C614        C  0.53851120  0.00092937  0.48320015     0.10200
C615        C  0.57775858  0.00909447  0.49067896    -0.12300
C616        C  0.58611987  0.02682451  0.50465138    -0.12300
C617        C  0.55530792  0.03658452  0.51162058     0.10200
C618        C  0.51533117  0.02850152  0.50423692    -0.02300
C619        C  0.43619078  0.01241428  0.48956240    -0.12400
C620        C  0.44435822  0.02978650  0.50358506    -0.12400
C621        C  0.48348444  0.03774220  0.51111465     0.10400
C622        C  0.49163985  0.05433770  0.52542931    -0.10500
C623        C  0.53133537  0.06270502  0.53242658    -0.04400
C624        C  0.56326263  0.05443089  0.52577922    -0.10500
H625        H  0.60229072  0.00183898  0.48574942     0.07700
H626        H  0.61688228  0.03273152  0.50998663     0.07700
H627        H  0.40557985  0.00672373  0.48417488     0.07900
H628        H  0.41969809  0.03682770  0.50853197     0.07900
H629        H  0.48351018  0.96077860  0.45118944     0.04300
H630        H  0.53727213  0.07545418  0.54343475     0.04300
C631        C  0.00074503  0.03943387  0.99787622     0.02600
C632        C  0.04226459  0.03927484  0.99926321     0.02600
C633        C  0.04169077  0.99727178  0.00012272     0.02600
C634        C  0.99985096  0.95578697  0.99896321     0.02600
C635        C  0.95863136  0.95605544  0.99764849     0.02600
C636        C  0.95890681  0.99774765  0.99721298     0.02600
C637        C  0.64890533  0.35917840  0.33242996     0.02600
C638        C  0.69199081  0.36246865  0.33170066     0.02600
C639        C  0.69511992  0.32261695  0.33124707     0.02600
C640        C  0.65539222  0.27917735  0.33142025     0.02600
C641        C  0.61199570  0.27572891  0.33198765     0.02600
C642        C  0.60867214  0.31580359  0.33281915     0.02600
C643        C  0.34472832  0.72161422  0.67061442     0.02600
C644        C  0.30256460  0.68042060  0.67185363     0.02600
C645        C  0.30120547  0.63793937  0.67173392     0.02600
C646        C  0.34235374  0.63694087  0.67041012     0.02600
C647        C  0.38443451  0.67834722  0.66952296     0.02600
C648        C  0.38557489  0.72048076  0.66963492     0.02600
C649        C  0.13319877  0.72273439  0.67472987    -0.22100
C650        C  0.13324571  0.68251256  0.67163363     0.09800
C651        C  0.09218552  0.64298300  0.66791558     0.10200
C652        C  0.05187712  0.64477837  0.66716067    -0.17100
C653        C  0.05169746  0.68516105  0.67015312    -0.27500
C654        C  0.09319242  0.72490439  0.67383788     0.18600
C655        C  0.17708031  0.68309572  0.67172107     0.12500
C656        C  0.09110156  0.59902789  0.66473732    -0.11800
H657        H  0.02031862  0.61450506  0.66425762     0.12800
C658        C  0.09752895  0.77084794  0.67614220    -0.22700
H659        H  0.16496732  0.75308041  0.67743540     0.08400
C660        C  0.20405710  0.69372361  0.65914560     0.04800
C661        C  0.24443552  0.69219607  0.65953917    -0.19900
C662        C  0.25938105  0.68183701  0.67234053    -0.12200
C663        C  0.23293980  0.67264445  0.68507436     0.13500
C664        C  0.19186541  0.67292916  0.68454708    -0.22600
C665        C  0.19027959  0.70684590  0.64533723    -0.05700
H666        H  0.26447519  0.69894154  0.64977569     0.15000
C667        C  0.24700820  0.66283809  0.69939596    -0.15900
H668        H  0.17127618  0.66535146  0.69423198     0.09300
H669        H  0.12370330  0.79596207  0.66865667     0.07200
H670        H  0.10838154  0.78217491  0.68741859     0.08400
H671        H  0.06582037  0.77133313  0.67405165     0.07500
H672        H  0.10308025  0.58848084  0.67432498     0.02300
H673        H  0.11362297  0.60365219  0.65541722     0.02800
H674        H  0.05627819  0.57121464  0.66207964     0.06300
H675        H  0.21538557  0.71437808  0.63654719     0.05300
H676        H  0.18777518  0.73776368  0.64716441    -0.00500
H677        H  0.15681944  0.67869549  0.64170788     0.01000
H678        H  0.24948542  0.68800822  0.70751128     0.04700
H679        H  0.28035161  0.66464901  0.69891951     0.06600
H680        H  0.22098672  0.62834356  0.70310320     0.07500
C681        C  0.59848385  0.73006364  0.66937082    -0.22100
C682        C  0.55978446  0.68922225  0.66526413     0.09800
C683        C  0.56487517  0.65281747  0.66028289     0.10200
C684        C  0.60844908  0.65792050  0.65974585    -0.17100
C685        C  0.64716634  0.69818115  0.66434905    -0.27500
C686        C  0.64207635  0.73508449  0.66901812     0.18600
C687        C  0.51425395  0.68509093  0.66649655     0.12500
C688        C  0.52419059  0.60787029  0.65612948    -0.11800
H689        H  0.61201782  0.62940933  0.65631006     0.12800
C690        C  0.68158705  0.78051501  0.67340027    -0.22700
H691        H  0.59459464  0.75828778  0.67294115     0.08400
C692        C  0.49426616  0.68304411  0.68008348     0.04800
C693        C  0.45169018  0.68013460  0.68069799    -0.19900
C694        C  0.42804519  0.67816648  0.66808460    -0.12200
C695        C  0.44746508  0.67892764  0.65447936     0.13500
C696        C  0.49052463  0.68289202  0.65386856    -0.22600
C697        C  0.51737942  0.68309497  0.69394159    -0.05700
H698        H  0.43670721  0.67948872  0.69109849     0.15000
C699        C  0.42397004  0.67599449  0.64042471    -0.15900
H700        H  0.50581894  0.68444756  0.64343626     0.09300
H701        H  0.67838196  0.78669321  0.68501213     0.07200
H702        H  0.68128952  0.80781706  0.66691686     0.08400
H703        H  0.71502482  0.78329109  0.67157290     0.07500
H704        H  0.50668257  0.61240701  0.64674250     0.02300
H705        H  0.50012869  0.59392871  0.66537798     0.02800
H706        H  0.53406816  0.58244846  0.65307483     0.06300
H707        H  0.49618283  0.67955792  0.70354281     0.05300
H708        H  0.55010651  0.71547107  0.69503762    -0.00500
H709        H  0.52380773  0.65417817  0.69394930     0.01000
H710        H  0.44576969  0.70655658  0.63376377     0.04700
H711        H  0.39067068  0.67385569  0.64194022     0.06600
H712        H  0.41823442  0.64530824  0.63441795     0.07500
C713        C  0.65468576  0.70973683  0.77548791    -0.22100
C714        C  0.69982395  0.72804248  0.77082768     0.09800
C715        C  0.73458324  0.76761377  0.77750072     0.10200
C716        C  0.72322444  0.78868232  0.78841092    -0.17100
C717        C  0.67783506  0.77221499  0.79242562    -0.27500
C718        C  0.64314423  0.73160883  0.78616054     0.18600
C719        C  0.70932993  0.71087229  0.75734453     0.12500
C720        C  0.78321856  0.78967965  0.77236372    -0.11800
H721        H  0.74952845  0.82025278  0.79308401     0.12800
C722        C  0.59365834  0.71194432  0.78990809    -0.22700
H723        H  0.62803695  0.67976597  0.77017171     0.08400
C724        C  0.72855927  0.68264983  0.75733654     0.04800
C725        C  0.74497721  0.67505720  0.74428979    -0.19900
C726        C  0.74191003  0.69452328  0.73122350    -0.12200
C727        C  0.71971676  0.72052248  0.73122613     0.13500
C728        C  0.70376279  0.72813070  0.74429648    -0.22600
C729        C  0.73195494  0.66094304  0.77109031    -0.05700
H730        H  0.76127529  0.65468653  0.74436052     0.15000
C731        C  0.71496141  0.74296614  0.71779028    -0.15900
H732        H  0.68877992  0.74972489  0.74448670     0.09300
H733        H  0.57971677  0.67673989  0.79403677     0.07200
H734        H  0.57454933  0.71099546  0.78008764     0.08400
H735        H  0.58794007  0.73181592  0.79828690     0.07500
H736        H  0.78533105  0.79923311  0.76079904     0.02300
H737        H  0.79624756  0.76588879  0.77364471     0.02800
H738        H  0.80578532  0.82100688  0.77856855     0.06300
H739        H  0.74763493  0.63959789  0.76918683     0.05300
H740        H  0.69740708  0.63892626  0.77564724    -0.00500
H741        H  0.75291528  0.68736296  0.77914032     0.01000
H742        H  0.69347158  0.71673253  0.70974317     0.04700
H743        H  0.74900155  0.76638933  0.71311232     0.06600
H744        H  0.69845336  0.76334730  0.72009885     0.07500
C745        C  0.71368304  0.61579380  0.57740548    -0.22100
C746        C  0.66722399  0.58385296  0.57791657     0.09800
C747        C  0.64628454  0.56576125  0.59137320     0.10200
C748        C  0.67215451  0.58108989  0.60410480    -0.17100
C749        C  0.71882435  0.61375198  0.60374333    -0.27500
C750        C  0.73989060  0.63098948  0.59007147     0.18600
C751        C  0.64091841  0.57009023  0.56423286     0.12500
C752        C  0.59651567  0.53047745  0.59227357    -0.11800
H753        H  0.65571008  0.56750590  0.61441778     0.12800
C754        C  0.78951618  0.66653917  0.58859126    -0.22700
H755        H  0.72938837  0.62928094  0.56699258     0.08400
C756        C  0.61998654  0.59381377  0.55878513     0.04800
C757        C  0.59168016  0.57686998  0.54659433    -0.19900
C758        C  0.58405552  0.53684104  0.53973958    -0.12200
C759        C  0.60734710  0.51477182  0.54470804     0.13500
C760        C  0.63545863  0.53166688  0.55689062    -0.22600
C761        C  0.62621334  0.63598000  0.56618699    -0.05700
H762        H  0.57323319  0.59327219  0.54294276     0.15000
C763        C  0.60170713  0.47221497  0.53772066    -0.15900
H764        H  0.65205507  0.51386445  0.56097668     0.09300
H765        H  0.79700737  0.69724111  0.59493092     0.07200
H766        H  0.79917194  0.67733467  0.57718533     0.08400
H767        H  0.81100604  0.65266152  0.59239056     0.07500
H768        H  0.58982811  0.49984421  0.58603723     0.02300
H769        H  0.57587329  0.54438959  0.58772898     0.02800
H770        H  0.58537583  0.51988580  0.60360418     0.06300
H771        H  0.60731349  0.65025818  0.56061236     0.05300
H772        H  0.66281724  0.66236388  0.56624817    -0.00500
H773        H  0.61366131  0.62788024  0.57749218     0.01000
H774        H  0.63550638  0.47787434  0.53436826     0.04700
H775        H  0.57994681  0.46218297  0.52796566     0.06600
H776        H  0.58628130  0.44367142  0.54558226     0.07500
C777        C  0.95441905  0.67978593  0.57551938    -0.22100
C778        C  0.96799755  0.64714614  0.57615189     0.09800
C779        C  0.97291722  0.63150125  0.58978005     0.10200
C780        C  0.96307583  0.64789828  0.60240576    -0.17100
C781        C  0.94749811  0.67911554  0.60186958    -0.27500
C782        C  0.94451618  0.69632760  0.58816828     0.18600
C783        C  0.97520646  0.62796504  0.56255564     0.12500
C784        C  0.98646067  0.59572580  0.59099033    -0.11800
H785        H  0.96502547  0.63405499  0.61275012     0.12800
C786        C  0.93182145  0.73256774  0.58639933    -0.22700
H787        H  0.95121882  0.69223753  0.56506003     0.08400
C788        C  0.93826727  0.59296560  0.55490088     0.04800
C789        C  0.94665549  0.57007358  0.54371214    -0.19900
C790        C  0.99111591  0.58117329  0.54004249    -0.12200
C791        C  0.02811497  0.61806525  0.54711562     0.13500
C792        C  0.01969908  0.64113406  0.55822123    -0.22600
C793        C  0.88997477  0.57809909  0.55907367    -0.05700
H794        H  0.91834666  0.54147457  0.53840701     0.15000
C795        C  0.07679973  0.63266342  0.54360253    -0.15900
H796        H  0.04807631  0.66813523  0.56402913     0.09300
H797        H  0.89873158  0.71815460  0.58072073     0.07200
H798        H  0.95823805  0.76096623  0.57983698     0.08400
H799        H  0.92967316  0.74752764  0.59678344     0.07500
H800        H  0.02081392  0.60864195  0.58627897     0.02300
H801        H  0.96163803  0.56457867  0.58511484     0.02800
H802        H  0.98739985  0.58622363  0.60241033     0.06300
H803        H  0.86514452  0.54975769  0.55217777     0.05300
H804        H  0.88384020  0.60701990  0.55785820    -0.00500
H805        H  0.88376963  0.56634690  0.57047998     0.01000
H806        H  0.09514358  0.66906181  0.54038171     0.04700
H807        H  0.07998843  0.61289309  0.53461288     0.06600
H808        H  0.09345822  0.62840297  0.55329169     0.07500
C809        C  0.50139626  0.82380920  0.67787051    -0.22100
C810        C  0.51777380  0.83937609  0.66388964     0.09800
C811        C  0.49046156  0.81618584  0.65186278     0.10200
C812        C  0.44644323  0.77928559  0.65414748    -0.17100
C813        C  0.43012501  0.76339010  0.66812301    -0.27500
C814        C  0.45823930  0.78558811  0.68014453     0.18600
C815        C  0.56328655  0.88054993  0.66220016     0.12500
C816        C  0.50847322  0.82886433  0.63665936    -0.11800
H817        H  0.42513965  0.76164428  0.64496845     0.12800
C818        C  0.44431531  0.76945743  0.69545122    -0.22700
H819        H  0.52270588  0.84134358  0.68707717     0.08400
C820        C  0.56789902  0.92342997  0.65939996     0.04800
C821        C  0.61152566  0.96179627  0.65831125    -0.19900
C822        C  0.65072097  0.95894708  0.66076935    -0.12200
C823        C  0.64607551  0.91599807  0.66377572     0.13500
C824        C  0.60233973  0.87723534  0.66431477    -0.22600
C825        C  0.52689159  0.92931038  0.65853494    -0.05700
H826        H  0.61498080  0.99484710  0.65642097     0.15000
C827        C  0.68624660  0.90970733  0.66631006    -0.15900
H828        H  0.59861314  0.84427866  0.66663306     0.09300
H829        H  0.44355620  0.79661942  0.70187138     0.07200
H830        H  0.46945222  0.76177960  0.70034054     0.08400
H831        H  0.41047882  0.73828927  0.69619013     0.07500
H832        H  0.53901065  0.82537387  0.63540556     0.02300
H833        H  0.51794248  0.86442496  0.63420971     0.02800
H834        H  0.48292819  0.80647379  0.62856794     0.06300
H835        H  0.53673420  0.96540192  0.65673353     0.05300
H836        H  0.50743807  0.91792099  0.66881935    -0.00500
H837        H  0.50438185  0.90902980  0.64954781     0.01000
H838        H  0.68436648  0.89637482  0.67739581     0.04700
H839        H  0.71925472  0.94164236  0.66502733     0.06600
H840        H  0.68556447  0.88482859  0.65840008     0.07500
C841        C  0.08420748  0.47358275  0.67205438    -0.22100
C842        C  0.12464608  0.47217075  0.67089629     0.09800
C843        C  0.12226590  0.42973594  0.66943468     0.10200
C844        C  0.07967755  0.38975909  0.66937341    -0.17100
C845        C  0.03922273  0.39105434  0.67038807    -0.27500
C846        C  0.04141692  0.43351932  0.67167132     0.18600
C847        C  0.16922510  0.51528177  0.67113574     0.12500
C848        C  0.16459826  0.42665486  0.66755276    -0.11800
H849        H  0.07785200  0.35718260  0.66814383     0.12800
C850        C  0.99957893  0.43772328  0.67287533    -0.22700
H851        H  0.08605049  0.50615476  0.67321947     0.08400
C852        C  0.18475893  0.54532893  0.65923647     0.04800
C853        C  0.22787950  0.58464830  0.65978617    -0.19900
C854        C  0.25616925  0.59475386  0.67190487    -0.12200
C855        C  0.24043864  0.56456166  0.68385128     0.13500
C856        C  0.19721955  0.52531339  0.68328609    -0.22600
C857        C  0.15638295  0.53540152  0.64581626    -0.05700
H858        H  0.23986787  0.60763791  0.65062523     0.15000
C859        C  0.26768069  0.57276053  0.69744997    -0.15900
H860        H  0.18518305  0.50221888  0.69243204     0.09300
H861        H  0.99869553  0.45833665  0.66371800     0.07200
H862        H  0.00060250  0.45503233  0.68315902     0.08400
H863        H  0.96767004  0.40431980  0.67276078     0.07500
H864        H  0.18625161  0.44022313  0.67728412     0.02300
H865        H  0.18389322  0.44666274  0.65793668     0.02800
H866        H  0.15655363  0.39098724  0.66600781     0.06300
H867        H  0.17412665  0.56193959  0.63741073     0.05300
H868        H  0.12397691  0.53414530  0.64846101    -0.00500
H869        H  0.14891444  0.50219233  0.64122670     0.01000
H870        H  0.24779258  0.57334754  0.70688622     0.04700
H871        H  0.30028705  0.60541599  0.69729489     0.06600
H872        H  0.27502156  0.54472601  0.69898013     0.07500
C873        C  0.69400936  0.98443672  0.74208237    -0.22100
C874        C  0.70627274  0.00697013  0.75540265     0.09800
C875        C  0.73185512  0.05490440  0.75561898     0.10200
C876        C  0.74675486  0.07902045  0.74251439    -0.17100
C877        C  0.73695894  0.05651466  0.72906856    -0.27500
C878        C  0.70854030  0.00827007  0.72892646     0.18600
C879        C  0.69626360  0.97912483  0.76878004     0.12500
C880        C  0.74371579  0.08063600  0.76968166    -0.11800
H881        H  0.76754014  0.11576165  0.74285816     0.12800
C882        C  0.69449599  0.98083979  0.71515032    -0.22700
H883        H  0.67448517  0.94758213  0.74201476     0.08400
C884        C  0.65141285  0.95009540  0.77379059     0.04800
C885        C  0.64366897  0.91899784  0.78500410    -0.19900
C886        C  0.67978061  0.91648901  0.79131535    -0.12200
C887        C  0.72482892  0.94752957  0.78690035     0.13500
C888        C  0.73243664  0.97818671  0.77565524    -0.22600
C889        C  0.61177088  0.95145254  0.76717007    -0.05700
H890        H  0.60917086  0.89499109  0.78836241     0.15000
C891        C  0.76552444  0.94799516  0.79346890    -0.15900
H892        H  0.76685365  0.00027371  0.77180408     0.09300
H893        H  0.67537728  0.99192184  0.70817432     0.07200
H894        H  0.67194159  0.94391792  0.71726950     0.08400
H895        H  0.72490588  0.98492862  0.70934377     0.07500
H896        H  0.76530666  0.07193967  0.77634033     0.02300
H897        H  0.71207647  0.07169423  0.77572783     0.02800
H898        H  0.76268220  0.11801356  0.76791332     0.06300
H899        H  0.57927436  0.92746726  0.77263481     0.05300
H900        H  0.60850099  0.94194597  0.75559030    -0.00500
H901        H  0.61699749  0.98629037  0.76815645     0.01000
H902        H  0.78351669  0.93971125  0.78505077     0.04700
H903        H  0.75640567  0.92339281  0.80247401     0.06600
H904        H  0.78910815  0.98241211  0.79782058     0.07500
C905        C  0.66378508  0.11841775  0.55026280    -0.22100
C906        C  0.66020935  0.08262625  0.55872599     0.09800
C907        C  0.63097197  0.03724068  0.55432862     0.10200
C908        C  0.60284808  0.02863908  0.54226020    -0.17100
C909        C  0.60360253  0.06449708  0.53455082    -0.27500
C910        C  0.63601124  0.10988480  0.53815773     0.18600
C911        C  0.68316767  0.09343741  0.57295942     0.12500
C912        C  0.62843663  0.99799755  0.56265211    -0.11800
H913        H  0.57787129  0.99391122  0.53948458     0.12800
C914        C  0.64035881  0.14998157  0.52985873    -0.22700
H915        H  0.68666158  0.15324218  0.55355366     0.08400
C916        C  0.73038937  0.11170360  0.57428116     0.04800
C917        C  0.75014905  0.12224537  0.58807060    -0.19900
C918        C  0.72376212  0.11459230  0.60065050    -0.12200
C919        C  0.67623384  0.09649115  0.59921263     0.13500
C920        C  0.65677779  0.08653308  0.58537500    -0.22600
C921        C  0.75971289  0.11920375  0.56118027    -0.05700
H922        H  0.78643197  0.13568482  0.58902048     0.15000
C923        C  0.64571383  0.08838243  0.61205852    -0.15900
H924        H  0.62054175  0.07308224  0.58418641     0.09300
H925        H  0.67585470  0.17117225  0.52592841     0.07200
H926        H  0.63196310  0.17088515  0.53703904     0.08400
H927        H  0.61771202  0.13967251  0.52030948     0.07500
H928        H  0.61663414  0.99768841  0.57385960     0.02300
H929        H  0.66259541  0.00136001  0.56296802     0.02800
H930        H  0.60448809  0.96481989  0.55759029     0.06300
H931        H  0.79587360  0.13279360  0.56414703     0.05300
H932        H  0.75803075  0.14396411  0.55378190    -0.00500
H933        H  0.74758882  0.08647082  0.55541927     0.01000
H934        H  0.61028652  0.07716358  0.60873276     0.04700
H935        H  0.65846687  0.12029831  0.61834749     0.06600
H936        H  0.64439935  0.06120790  0.61902210     0.07500
C937        C  0.96814178  0.30849934  0.57638709    -0.22100
C938        C  0.97814669  0.35375345  0.57729257     0.09800
C939        C  0.97563102  0.37154781  0.59081102     0.10200
C940        C  0.96201881  0.34334231  0.60305245    -0.17100
C941        C  0.94933445  0.29713437  0.60211730    -0.27500
C942        C  0.95359365  0.27983388  0.58861494     0.18600
C943        C  0.98596936  0.38062369  0.56385278     0.12500
C944        C  0.98517824  0.41975526  0.59220754    -0.11800
H945        H  0.95871256  0.35693978  0.61328279     0.12800
C946        C  0.94316318  0.23146520  0.58698064    -0.22700
H947        H  0.97018889  0.29514706  0.56595496     0.08400
C948        C  0.02998553  0.41285517  0.55896716     0.04800
C949        C  0.03491183  0.44275596  0.54766728    -0.19900
C950        C  0.99671337  0.44051474  0.54109248    -0.12200
C951        C  0.95272393  0.40617994  0.54539165     0.13500
C952        C  0.94795699  0.37671681  0.55670731    -0.22600
C953        C  0.07151465  0.41620608  0.56588838    -0.05700
H954        H  0.06855860  0.46924967  0.54439221     0.15000
C955        C  0.91004299  0.40100276  0.53870101    -0.15900
H956        H  0.91418301  0.35174242  0.56042530     0.09300
H957        H  0.95168480  0.22495388  0.57597418     0.07200
H958        H  0.90641408  0.20747222  0.58876661     0.08400
H959        H  0.96342676  0.22447477  0.59486046     0.07500
H960        H  0.96129788  0.42461462  0.58532640     0.02300
H961        H  0.02053545  0.44401304  0.58875527     0.02800
H962        H  0.98107138  0.42806452  0.60351588     0.06300
H963        H  0.10329560  0.44307241  0.56075210     0.05300
H964        H  0.07052002  0.38323255  0.56475463    -0.00500
H965        H  0.07258738  0.42437970  0.57753413     0.01000
H966        H  0.88937315  0.36608610  0.53429151     0.04700
H967        H  0.91687887  0.42521709  0.52973277     0.06600
H968        H  0.88986739  0.40648653  0.54707176     0.07500
C969        C  0.08011963  0.76048123  0.77464524    -0.22100
C970        C  0.05274181  0.77991109  0.77221702     0.09800
C971        C  0.05314785  0.81091698  0.78248318     0.10200
C972        C  0.08301503  0.82404102  0.79431172    -0.17100
C973        C  0.11324921  0.80771205  0.79602630    -0.27500
C974        C  0.11088619  0.77460893  0.78628922     0.18600
C975        C  0.02714306  0.77067374  0.75830725     0.12500
C976        C  0.02440263  0.83263341  0.78045453    -0.11800
H977        H  0.08559870  0.85021812  0.80159113     0.12800
C978        C  0.14269739  0.75623243  0.78776071    -0.22700
H979        H  0.07933090  0.73616962  0.76691071     0.08400
C980        C  0.04979116  0.78890906  0.74504412     0.04800
C981        C  0.02446004  0.78033710  0.73223226    -0.19900
C982        C  0.97661031  0.75432211  0.73219615    -0.12200
C983        C  0.95394786  0.73670024  0.74566602     0.13500
C984        C  0.97955930  0.74494063  0.75841878    -0.22600
C985        C  0.10083263  0.81818026  0.74441016    -0.05700
H986        H  0.04236780  0.79409414  0.72213458     0.15000
C987        C  0.90288527  0.70817778  0.74685508    -0.15900
H988        H  0.96232361  0.73109373  0.76861207     0.09300
H989        H  0.13645084  0.73051836  0.77932357     0.07200
H990        H  0.13786105  0.73988774  0.79850610     0.08400
H991        H  0.17846270  0.78431280  0.78671813     0.07500
H992        H  0.98786521  0.80617615  0.78062500     0.02300
H993        H  0.03280197  0.85095714  0.76996116     0.02800
H994        H  0.03018184  0.85745459  0.78915617     0.06300
H995        H  0.11302873  0.83105559  0.73331546     0.05300
H996        H  0.11681813  0.79823054  0.74782692    -0.00500
H997        H  0.11222547  0.84794934  0.75166935     0.01000
H998        H  0.89018924  0.67736228  0.74000817     0.04700
H999        H  0.88713203  0.72841300  0.74348557     0.06600
H1000       H  0.89159464  0.69659789  0.75811345     0.07500
C1001       C  0.05888785  0.31169982  0.77552275    -0.22100
C1002       C  0.02475481  0.26679993  0.77277364     0.09800
C1003       C  0.01433507  0.23283929  0.78327917     0.10200
C1004       C  0.04032962  0.24407512  0.79596099    -0.17100
C1005       C  0.07710877  0.28815756  0.79813896    -0.27500
C1006       C  0.08532410  0.32277700  0.78807650     0.18600
C1007       C  0.00314051  0.25551356  0.75834022     0.12500
C1008       C  0.97785624  0.18422301  0.78068142    -0.11800
H1009       H  0.03482742  0.21744502  0.80352210     0.12800
C1010       C  0.12365816  0.37101668  0.78988141    -0.22700
H1011       H  0.06647365  0.33776007  0.76748897     0.08400
C1012       C  0.96237825  0.25532505  0.75565648     0.04800
C1013       C  0.94320666  0.24410283  0.74181144    -0.19900
C1014       C  0.96459786  0.23447144  0.73045584    -0.12200
C1015       C  0.00583938  0.23529066  0.73310779     0.13500
C1016       C  0.02446221  0.24549683  0.74708594    -0.22600
C1017       C  0.93971806  0.26791082  0.76730943    -0.05700
H1018       H  0.91180861  0.24394867  0.73973109     0.15000
C1019       C  0.02952091  0.22423937  0.72138875    -0.15900
H1020       H  0.05590016  0.24584682  0.74926986     0.09300
H1021       H  0.10989163  0.39445287  0.78967089     0.07200
H1022       H  0.14839794  0.37996662  0.78088644     0.08400
H1023       H  0.14191941  0.37633576  0.80025150     0.07500
H1024       H  0.98614813  0.17107691  0.77085451     0.02300
H1025       H  0.94455914  0.18212512  0.77916543     0.02800
H1026       H  0.97460130  0.16188863  0.78990490     0.06300
H1027       H  0.90825680  0.26646161  0.76335004     0.05300
H1028       H  0.96332116  0.30309070  0.77107677    -0.00500
H1029       H  0.93044598  0.24420384  0.77658483     0.01000
H1030       H  0.04031648  0.24970104  0.71256310     0.04700
H1031       H  0.00614280  0.18981540  0.71700067     0.06600
H1032       H  0.06032695  0.22463619  0.72550726     0.07500
C1033       C  0.38628345  0.46882374  0.66350693    -0.22100
C1034       C  0.34939660  0.46985651  0.66991241     0.09800
C1035       C  0.31465873  0.43033301  0.67664003     0.10200
C1036       C  0.31824431  0.39104764  0.67722675    -0.17100
C1037       C  0.35498113  0.38975834  0.67081184    -0.27500
C1038       C  0.38935556  0.42908311  0.66376199     0.18600
C1039       C  0.34821424  0.51290798  0.66992693     0.12500
C1040       C  0.27314676  0.42928205  0.68280311    -0.11800
H1041       H  0.29138338  0.36057601  0.68231638     0.12800
C1042       C  0.43000806  0.43060318  0.65669641    -0.22700
H1043       H  0.41294754  0.49928293  0.65835104     0.08400
C1044       C  0.36380210  0.54238297  0.68192483     0.04800
C1045       C  0.35975238  0.58139595  0.68191946    -0.19900
C1046       C  0.34218870  0.59288485  0.66997378    -0.12200
C1047       C  0.32793808  0.56399979  0.65771964     0.13500
C1048       C  0.33037511  0.52393567  0.65797584    -0.22600
C1049       C  0.38555224  0.53311610  0.69462323    -0.05700
H1050       H  0.37089668  0.60348905  0.69127041     0.15000
C1051       C  0.31118597  0.57479215  0.64408820    -0.15900
H1052       H  0.31878966  0.50139107  0.64871279     0.09300
H1053       H  0.46160395  0.45804634  0.66168474     0.07200
H1054       H  0.43034825  0.43794179  0.64499315     0.08400
H1055       H  0.43027374  0.39832643  0.65787133     0.07500
H1056       H  0.25565120  0.43688186  0.67408910     0.02300
H1057       H  0.28295067  0.45504107  0.69147380     0.02800
H1058       H  0.24874797  0.39545928  0.68743326     0.06300
H1059       H  0.39653227  0.55999844  0.70299512     0.05300
H1060       H  0.41600061  0.53196022  0.69091957    -0.00500
H1061       H  0.36121019  0.50008605  0.69969127     0.01000
H1062       H  0.33279300  0.57635966  0.63484761     0.04700
H1063       H  0.31223903  0.60781271  0.64458419     0.06600
H1064       H  0.27561241  0.54761212  0.64199575     0.07500
C1065       C  0.37213057  0.92607494  0.65868351    -0.22100
C1066       C  0.33416401  0.88553734  0.66337469     0.09800
C1067       C  0.29322737  0.88504737  0.66651987     0.10200
C1068       C  0.29174014  0.92556259  0.66530574    -0.17100
C1069       C  0.32992508  0.96616169  0.66069607    -0.27500
C1070       C  0.37047917  0.96624053  0.65717255     0.18600
C1071       C  0.33846673  0.84435518  0.66511164     0.12500
C1072       C  0.25104473  0.84171190  0.67096613    -0.11800
H1073       H  0.26080950  0.92565355  0.66803755     0.12800
C1074       C  0.41312159  0.00829917  0.65213009    -0.22700
H1075       H  0.40356806  0.92650725  0.65632534     0.08400
C1076       C  0.34238030  0.82100137  0.65307508     0.04800
C1077       C  0.34630232  0.78228895  0.65529836    -0.19900
C1078       C  0.34553722  0.76575182  0.66924621    -0.12200
C1079       C  0.34231560  0.78954251  0.68130956     0.13500
C1080       C  0.33925176  0.82874976  0.67908033    -0.22600
C1081       C  0.34091504  0.83596297  0.63787312    -0.05700
H1082       H  0.34849794  0.76383332  0.64607890     0.15000
C1083       C  0.34172529  0.77453636  0.69663262    -0.15900
H1084       H  0.33695836  0.84707218  0.68832869     0.09300
H1085       H  0.42289993  0.00197686  0.64129213     0.07200
H1086       H  0.44117070  0.01629524  0.65980514     0.08400
H1087       H  0.40932887  0.03869776  0.65130548     0.07500
H1088       H  0.25695332  0.82894950  0.68128403     0.02300
H1089       H  0.24195395  0.81549475  0.66246523     0.02800
H1090       H  0.22164410  0.84693848  0.67254570     0.06300
H1091       H  0.34266658  0.81285497  0.62975006     0.05300
H1092       H  0.37013671  0.87062201  0.63593801    -0.00500
H1093       H  0.30870739  0.83608743  0.63618503     0.01000
H1094       H  0.37105071  0.80183942  0.70258477     0.04700
H1095       H  0.34369506  0.74312810  0.69734102     0.06600
H1096       H  0.30985003  0.76808666  0.70201802     0.07500
C1097       C  0.29911704  0.99841222  0.74514393    -0.22100
C1098       C  0.31990423  0.02516283  0.75735841     0.09800
C1099       C  0.35176509  0.07184413  0.75558116     0.10200
C1100       C  0.36018604  0.09123295  0.74164527    -0.17100
C1101       C  0.33797285  0.06477319  0.72942444    -0.27500
C1102       C  0.30724473  0.01748514  0.73124070     0.18600
C1103       C  0.30378697  0.00372953  0.77181548     0.12500
C1104       C  0.37643991  0.10111059  0.76839100    -0.11800
H1105       H  0.38337662  0.12739247  0.74031250     0.12800
C1106       C  0.27976074  0.98629697  0.71905247    -0.22700
H1107       H  0.27444702  0.96260308  0.74656458     0.08400
C1108       C  0.26631666  0.00328434  0.77857683     0.04800
C1109       C  0.24583585  0.97515900  0.79063501    -0.19900
C1110       C  0.26087669  0.94625336  0.79585765    -0.12200
C1111       C  0.30012587  0.94875923  0.78963304     0.13500
C1112       C  0.32128029  0.97774483  0.77773746    -0.22600
C1113       C  0.24583549  0.02997377  0.77245280    -0.05700
H1114       H  0.21541356  0.97274818  0.79526997     0.15000
C1115       C  0.31888908  0.91941552  0.79468138    -0.15900
H1116       H  0.34992858  0.97797595  0.77250976     0.09300
H1117       H  0.24297687  0.97063337  0.72158489     0.07200
H1118       H  0.28808280  0.95881600  0.71789612     0.08400
H1119       H  0.28553939  0.00355337  0.70849429     0.07500
H1120       H  0.39615935  0.08746196  0.77379351     0.02300
H1121       H  0.35182461  0.10127998  0.77622741     0.02800
H1122       H  0.40042594  0.13681743  0.76513514     0.06300
H1123       H  0.21621111  0.02520082  0.77892001     0.05300
H1124       H  0.23407623  0.01865991  0.76123942    -0.00500
H1125       H  0.27145496  0.06678645  0.77236473     0.01000
H1126       H  0.31780579  0.89730499  0.78568427     0.04700
H1127       H  0.29974573  0.89729553  0.80392654     0.06600
H1128       H  0.35473359  0.94144891  0.79811114     0.07500
C1129       C  0.24971366  0.26786567  0.74732947    -0.22100
C1130       C  0.26627126  0.25709965  0.75968567     0.09800
C1131       C  0.29238486  0.23586257  0.75815875     0.10200
C1132       C  0.30073166  0.22508516  0.74429436    -0.17100
C1133       C  0.28360553  0.23502413  0.73186386    -0.27500
C1134       C  0.25779663  0.25690657  0.73340300     0.18600
C1135       C  0.25206307  0.26445013  0.77409937     0.12500
C1136       C  0.31151759  0.22473592  0.77116250    -0.11800
H1137       H  0.32097846  0.20884198  0.74314027     0.12800
C1138       C  0.23631165  0.26714637  0.72083011    -0.22700
H1139       H  0.22903356  0.28360506  0.74860502     0.08400
C1140       C  0.27196055  0.30790029  0.78052587     0.04800
C1141       C  0.25220566  0.31395538  0.79307036    -0.19900
C1142       C  0.21314639  0.27740781  0.79922098    -0.12200
C1143       C  0.19585147  0.23322896  0.79345600     0.13500
C1144       C  0.21544489  0.22734070  0.78093749    -0.22600
C1145       C  0.31290638  0.34794461  0.77384654    -0.05700
H1146       H  0.26500821  0.34784902  0.79740626     0.15000
C1147       C  0.15476878  0.19218735  0.79973137    -0.15900
H1148       H  0.20064472  0.19386685  0.77607447     0.09300
H1149       H  0.25062851  0.30446657  0.71997534     0.07200
H1150       H  0.19906235  0.25060281  0.72264329     0.08400
H1151       H  0.24135761  0.25452183  0.71037358     0.07500
H1152       H  0.28346850  0.20056681  0.77830879     0.02300
H1153       H  0.33383139  0.25637212  0.77726147     0.02800
H1154       H  0.33193735  0.20889581  0.76803978     0.06300
H1155       H  0.32444762  0.37938910  0.78030282     0.05300
H1156       H  0.30463560  0.35421660  0.76280440    -0.00500
H1157       H  0.34131312  0.34083659  0.77321157     0.01000
H1158       H  0.12679924  0.17819789  0.79170111     0.04700
H1159       H  0.14232972  0.20008056  0.80978865     0.06600
H1160       H  0.16356808  0.16573429  0.80238561     0.07500
C1161       C  0.43273057  0.09135992  0.58418728    -0.22100
C1162       C  0.40820528  0.09198563  0.57211582     0.09800
C1163       C  0.37382079  0.10305516  0.57385195     0.10200
C1164       C  0.36630868  0.11555082  0.58758625    -0.17100
C1165       C  0.39149068  0.11588292  0.59965528    -0.27500
C1166       C  0.42474515  0.10302119  0.59798171     0.18600
C1167       C  0.42102458  0.08268900  0.55777725     0.12500
C1168       C  0.34472366  0.10094895  0.56130971    -0.11800
H1169       H  0.34026064  0.12467947  0.58896616     0.12800
C1170       C  0.45355235  0.10283869  0.61028617    -0.22700
H1171       H  0.45902513  0.08258854  0.58276217     0.08400
C1172       C  0.45454204  0.11829781  0.54927872     0.04800
C1173       C  0.47310681  0.10767992  0.53739165    -0.19900
C1174       C  0.45970851  0.06239439  0.53407589    -0.12200
C1175       C  0.42388087  0.02674464  0.54199638     0.13500
C1176       C  0.40468086  0.03742175  0.55370130    -0.22600
C1177       C  0.47308250  0.16741046  0.55336745    -0.05700
H1178       H  0.50104685  0.13484874  0.53142485     0.15000
C1179       C  0.40738382  0.97726529  0.53907965    -0.15900
H1180       H  0.37892967  0.01023149  0.56028467     0.09300
H1181       H  0.49001294  0.12594481  0.60767541     0.07200
H1182       H  0.44757094  0.06787704  0.61183080     0.08400
H1183       H  0.44644354  0.11435215  0.62064886     0.07500
H1184       H  0.32651768  0.06585617  0.55689190     0.02300
H1185       H  0.36607948  0.12474437  0.55266297     0.02800
H1186       H  0.31900163  0.11017230  0.56460619     0.06300
H1187       H  0.49984472  0.19086451  0.54571049     0.05300
H1188       H  0.48821374  0.17374639  0.56432968    -0.00500
H1189       H  0.44546296  0.17565583  0.55331413     0.01000
H1190       H  0.41301920  0.96156254  0.54877945     0.04700
H1191       H  0.42483602  0.97194040  0.52982016     0.06600
H1192       H  0.37045076  0.95936576  0.53666341     0.07500
C1193       C  0.32952849  0.28393685  0.57579021    -0.22100
C1194       C  0.36169448  0.33054428  0.57488081     0.09800
C1195       C  0.38049372  0.35537379  0.58774632     0.10200
C1196       C  0.36747480  0.33291149  0.60113614    -0.17100
C1197       C  0.33727092  0.28585152  0.60203752    -0.27500
C1198       C  0.31725085  0.26120115  0.58919888     0.18600
C1199       C  0.37897132  0.35237336  0.56050147     0.12500
C1200       C  0.41645629  0.40508274  0.58733595    -0.11800
H1201       H  0.38337062  0.35171419  0.61091915     0.12800
C1202       C  0.28287975  0.21106161  0.58925739    -0.22700
H1203       H  0.31489715  0.26490396  0.56594527     0.08400
C1204       C  0.41077737  0.34548769  0.55272097     0.04800
C1205       C  0.43474083  0.37452331  0.54114206    -0.19900
C1206       C  0.42823051  0.41072897  0.53727289    -0.12200
C1207       C  0.39369474  0.41521570  0.54427217     0.13500
C1208       C  0.36911605  0.38560430  0.55569573    -0.22600
C1209       C  0.42189069  0.30967980  0.55726850    -0.05700
H1210       H  0.46149504  0.37140038  0.53585076     0.15000
C1211       C  0.38397414  0.45258756  0.54058963    -0.15900
H1212       H  0.34436576  0.39060136  0.56156437     0.09300
H1213       H  0.29661303  0.19242831  0.58318915     0.07200
H1214       H  0.25120403  0.20525142  0.58393712     0.08400
H1215       H  0.27361846  0.19662794  0.60030339     0.07500
H1216       H  0.40240039  0.42520064  0.58249068     0.02300
H1217       H  0.44596688  0.40980513  0.58081380     0.02800
H1218       H  0.42891510  0.41877673  0.59831915     0.06300
H1219       H  0.44850102  0.30978654  0.55027054     0.05300
H1220       H  0.39102007  0.27549811  0.55653236    -0.00500
H1221       H  0.43450693  0.31590261  0.56856228     0.01000
H1222       H  0.34779678  0.43737845  0.53739167     0.04700
H1223       H  0.40521210  0.47433848  0.53155527     0.06600
H1224       H  0.39034263  0.47455267  0.55019216     0.07500
C1225       C  0.01849389  0.15674912  0.98832013    -0.22100
C1226       C  0.00454775  0.16802037  0.00116185     0.09800
C1227       C  0.98815845  0.13648116  0.01268687     0.10200
C1228       C  0.98632282  0.09454881  0.01109395    -0.17100
C1229       C  0.00079968  0.08340321  0.99830858    -0.27500
C1230       C  0.01718374  0.11508954  0.98675872     0.18600
C1231       C  0.00595910  0.21236236  0.00205603     0.12500
C1232       C  0.97373833  0.14746272  0.02680252    -0.11800
H1233       H  0.97447164  0.07058862  0.02000632     0.12800
C1234       C  0.03352742  0.10638295  0.97265084    -0.22700
H1235       H  0.03045404  0.18070816  0.97940009     0.08400
C1236       C  0.04737195  0.25430684  0.00247298     0.04800
C1237       C  0.04658188  0.29527294  0.00256043    -0.19900
C1238       C  0.00531836  0.29514772  0.00246028    -0.12200
C1239       C  0.96385598  0.25303223  0.00218242     0.13500
C1240       C  0.96481761  0.21232519  0.00195850    -0.22600
C1241       C  0.09227889  0.25581271  0.00301739    -0.05700
H1242       H  0.07823767  0.32751959  0.00269167     0.15000
C1243       C  0.91787821  0.24942224  0.00151944    -0.15900
H1244       H  0.93309262  0.18017211  0.00140946     0.09300
H1245       H  0.06973418  0.13264885  0.97097131     0.07200
H1246       H  0.01334426  0.10862190  0.96362877     0.08400
H1247       H  0.03049160  0.07248551  0.97221122     0.07500
H1248       H  0.94424482  0.15234002  0.02509511     0.02300
H1249       H  0.00239254  0.17901884  0.03139987     0.02800
H1250       H  0.96350661  0.11969956  0.03483331     0.06300
H1251       H  0.12121623  0.29121144  0.00386329     0.05300
H1252       H  0.09713655  0.24054445  0.99307615    -0.00500
H1253       H  0.09296736  0.23651540  0.01257303     0.01000
H1254       H  0.89975558  0.23036413  0.99166302     0.04700
H1255       H  0.91959756  0.28276256  0.00113789     0.06600
H1256       H  0.89754729  0.23063983  0.01114872     0.07500
C1257       C  0.99931038  0.84829483  0.01114228    -0.22100
C1258       C  0.99619680  0.82731257  0.99781256     0.09800
C1259       C  0.99342590  0.84806947  0.98496791     0.10200
C1260       C  0.99583894  0.89039042  0.98571199    -0.17100
C1261       C  0.99886807  0.91147295  0.99902228    -0.27500
C1262       C  0.99997230  0.88983609  0.01193033     0.18600
C1263       C  0.99501329  0.78317679  0.99759342     0.12500
C1264       C  0.98647960  0.82497113  0.97053938    -0.11800
H1265       H  0.99523188  0.90714831  0.97585689     0.12800
C1266       C  0.00105153  0.90912920  0.02665899    -0.22700
H1267       H  0.00067590  0.83185011  0.02100297     0.08400
C1268       C  0.03433978  0.78067364  0.99457509     0.04800
C1269       C  0.03136652  0.73798827  0.99438200    -0.19900
C1270       C  0.99053162  0.69799599  0.99777770    -0.12200
C1271       C  0.95135778  0.70071479  0.00105749     0.13500
C1272       C  0.95399057  0.74329735  0.00074784    -0.22600
C1273       C  0.07977230  0.82312193  0.99216759    -0.05700
H1274       H  0.06161393  0.73600999  0.99217267     0.15000
C1275       C  0.90662346  0.65886100  0.00461995    -0.15900
H1276       H  0.92404891  0.74565887  0.00312705     0.09300
H1277       H  0.03249539  0.91595168  0.03236600     0.07200
H1278       H  0.97110482  0.88412358  0.03301639     0.08400
H1279       H  0.00004334  0.94113034  0.02621409     0.07500
H1280       H  0.95436786  0.79165190  0.97075656     0.02300
H1281       H  0.01508999  0.81928088  0.96806498     0.02800
H1282       H  0.98414275  0.84561257  0.96164968     0.06300
H1283       H  0.10716808  0.81506674  0.99024152     0.05300
H1284       H  0.08900151  0.84531075  0.00184435    -0.00500
H1285       H  0.07843413  0.84223230  0.98267112     0.01000
H1286       H  0.90959205  0.64320476  0.01476369     0.04700
H1287       H  0.89649706  0.63392406  0.99566266     0.06600
H1288       H  0.87913796  0.66700400  0.00619523     0.07500
C1289       C  0.11675717  0.70071206  0.92278017    -0.22100
C1290       C  0.09707575  0.67862780  0.90975352     0.09800
C1291       C  0.06581075  0.63145637  0.90992286     0.10200
C1292       C  0.05394617  0.60771059  0.92318047    -0.17100
C1293       C  0.07253374  0.62994951  0.93640459    -0.27500
C1294       C  0.10509038  0.67725239  0.93606202     0.18600
C1295       C  0.11073397  0.70603882  0.89614503     0.12500
C1296       C  0.04466847  0.60636252  0.89611677    -0.11800
H1297       H  0.02917079  0.57165819  0.92321176     0.12800
C1298       C  0.12869817  0.70343227  0.94951669    -0.22700
H1299       H  0.14135912  0.73682478  0.92253151     0.08400
C1300       C  0.09140604  0.73270456  0.89209765     0.04800
C1301       C  0.11055636  0.76388891  0.88055893    -0.19900
C1302       C  0.14864605  0.76901858  0.87296265    -0.12200
C1303       C  0.16604988  0.74013871  0.87647315     0.13500
C1304       C  0.14688800  0.70907925  0.88797759    -0.22600
C1305       C  0.05163159  0.72937640  0.90032283    -0.05700
H1306       H  0.09764190  0.78641952  0.87806945     0.15000
C1307       C  0.20639751  0.74293643  0.86874192    -0.15900
H1308       H  0.16165070  0.68852656  0.89101798     0.09300
H1309       H  0.10397209  0.70548097  0.95685281     0.07200
H1310       H  0.15554877  0.73888632  0.94699324     0.08400
H1311       H  0.14515279  0.68662508  0.95510540     0.07500
H1312       H  0.07164772  0.60943738  0.88864589     0.02300
H1313       H  0.02565369  0.62105937  0.89087946     0.02800
H1314       H  0.02067764  0.56963176  0.89809131     0.06300
H1315       H  0.04044901  0.75233420  0.89577101     0.05300
H1316       H  0.06111171  0.73888041  0.91179163    -0.00500
H1317       H  0.02256081  0.69396834  0.89981549     0.01000
H1318       H  0.23477647  0.75323447  0.87648566     0.04700
H1319       H  0.21865434  0.76760329  0.85967057     0.06600
H1320       H  0.19687790  0.70906588  0.86422021     0.07500
C1321       C  0.99799140  0.37462050  0.91005112    -0.22100
C1322       C  0.03045585  0.36091276  0.91105159     0.09800
C1323       C  0.04961324  0.36151544  0.92459496     0.10200
C1324       C  0.03681559  0.37692895  0.93677079    -0.17100
C1325       C  0.00624997  0.39319705  0.93576818    -0.27500
C1326       C  0.98567835  0.39093033  0.92225486     0.18600
C1327       C  0.04791968  0.35041202  0.89776397     0.12500
C1328       C  0.08518310  0.34777124  0.92609910    -0.11800
H1329       H  0.05292231  0.37867262  0.94702630     0.12800
C1330       C  0.95058612  0.40515089  0.92062888    -0.22700
H1331       H  0.98335994  0.37389055  0.89960113     0.08400
C1332       C  0.03196744  0.30529387  0.89317762     0.04800
C1333       C  0.05634125  0.29681073  0.88251433    -0.19900
C1334       C  0.09604055  0.33258338  0.87636033    -0.12200
C1335       C  0.10990360  0.37795681  0.88022208     0.13500
C1336       C  0.08566626  0.38626646  0.89087976    -0.22600
C1337       C  0.99021452  0.26622247  0.89988883    -0.05700
H1338       H  0.04581123  0.26209693  0.87951581     0.15000
C1339       C  0.15121216  0.41825272  0.87372957    -0.15900
H1340       H  0.09772604  0.42090158  0.89438544     0.09300
H1341       H  0.93591943  0.39811008  0.90958518     0.07200
H1342       H  0.96612533  0.44219576  0.92256336     0.08400
H1343       H  0.92239867  0.38604395  0.92843142     0.07500
H1344       H  0.11515699  0.37006208  0.91927521     0.02300
H1345       H  0.07106288  0.31193240  0.92264702     0.02800
H1346       H  0.09696609  0.35067461  0.93743326     0.06300
H1347       H  0.98229179  0.23314953  0.89505993     0.05300
H1348       H  0.96061648  0.27097289  0.89815461    -0.00500
H1349       H  0.99527922  0.26466589  0.91166626     0.01000
H1350       H  0.14120990  0.44170818  0.86884167     0.04700
H1351       H  0.16745881  0.40858676  0.86513032     0.06600
H1352       H  0.17672244  0.43661987  0.88231103     0.07500
C1353       C  0.20401673  0.25264039  0.99864285    -0.22100
C1354       C  0.20560059  0.21561422  0.00460399     0.09800
C1355       C  0.24586273  0.22254581  0.01115681     0.10200
C1356       C  0.28400587  0.26646507  0.01143260    -0.17100
C1357       C  0.28316019  0.30359128  0.00506303    -0.27500
C1358       C  0.24210121  0.29670882  0.99891115     0.18600
C1359       C  0.16480154  0.16974332  0.00366502     0.12500
C1360       C  0.24901429  0.18332685  0.01738417    -0.11800
H1361       H  0.31539754  0.27138048  0.01604855     0.12800
C1362       C  0.23666281  0.33482352  0.99287203    -0.22700
H1363       H  0.17278073  0.24705019  0.99372180     0.08400
C1364       C  0.13140314  0.15298361  0.01460012     0.04800
C1365       C  0.09253323  0.11002760  0.01295754    -0.19900
C1366       C  0.08597365  0.08346037  0.00058176    -0.12200
C1367       C  0.11993870  0.10030293  0.98967056     0.13500
C1368       C  0.15904402  0.14312534  0.99143398    -0.22600
C1369       C  0.13670768  0.18051460  0.02795772    -0.05700
H1370       H  0.06682075  0.09708287  0.02136228     0.15000
C1371       C  0.11565124  0.07514398  0.97582651    -0.15900
H1372       H  0.18490132  0.15630959  0.98305787     0.09300
H1373       H  0.20729566  0.33461671  0.99819661     0.07200
H1374       H  0.23013121  0.32983190  0.98107895     0.08400
H1375       H  0.26660352  0.36890584  0.99475988     0.07500
H1376       H  0.24243148  0.15809301  0.00876920     0.02300
H1377       H  0.22350069  0.16667856  0.02612352     0.02800
H1378       H  0.28317020  0.19456613  0.02196780     0.06300
H1379       H  0.10698028  0.16269172  0.03531223     0.05300
H1380       H  0.14018081  0.21362909  0.02489931    -0.00500
H1381       H  0.16750906  0.18688830  0.03396381     0.01000
H1382       H  0.11851462  0.09681620  0.96646000     0.04700
H1383       H  0.08276701  0.04299234  0.97488498     0.06600
H1384       H  0.14354101  0.06728418  0.97514209     0.07500
C1385       C  0.79019873  0.74441560  0.00167150    -0.22100
C1386       C  0.78920811  0.78386005  0.99794387     0.09800
C1387       C  0.74768643  0.78045467  0.99392446     0.10200
C1388       C  0.70799095  0.73754882  0.99376707    -0.17100
C1389       C  0.70861771  0.69799318  0.99776598    -0.27500
C1390       C  0.75047008  0.70146475  0.00162359     0.18600
C1391       C  0.83223036  0.82827820  0.99806116     0.12500
C1392       C  0.74504848  0.82223255  0.99024407    -0.11800
H1393       H  0.67590439  0.73506875  0.99099506     0.12800
C1394       C  0.75489685  0.66074735  0.00532803    -0.22700
H1395       H  0.82233361  0.74716767  0.00456224     0.08400
C1396       C  0.85240072  0.85104122  0.01108100     0.04800
C1397       C  0.89372783  0.89245117  0.01058472    -0.19900
C1398       C  0.91471558  0.91212423  0.99736694    -0.12200
C1399       C  0.89410897  0.88956769  0.98432303     0.13500
C1400       C  0.85325783  0.84779635  0.98485880    -0.22600
C1401       C  0.82987767  0.83209117  0.02544223    -0.05700
H1402       H  0.90967789  0.90985189  0.02055381     0.15000
C1403       C  0.91431389  0.90819351  0.96968904    -0.15900
H1404       H  0.83764376  0.83019727  0.97487706     0.09300
H1405       H  0.76654963  0.66352826  0.01666936     0.07200
H1406       H  0.78041023  0.65977223  0.99806243     0.08400
H1407       H  0.72275028  0.62801315  0.00403070     0.07500
H1408       H  0.76652945  0.83946662  0.98065489     0.02300
H1409       H  0.75717534  0.84612497  0.99953145     0.02800
H1410       H  0.70972723  0.81366284  0.98773741     0.06300
H1411       H  0.84972868  0.85472783  0.03451629     0.05300
H1412       H  0.82664688  0.79836184  0.02727649    -0.00500
H1413       H  0.79554934  0.82836522  0.02557326     0.01000
H1414       H  0.92059818  0.88326499  0.96391192     0.04700
H1415       H  0.94693983  0.94076169  0.97029635     0.06600
H1416       H  0.89005688  0.91378049  0.96328038     0.07500
C1417       C  0.57600737  0.62583637  0.90994870    -0.22100
C1418       C  0.59004938  0.67213106  0.90950390     0.09800
C1419       C  0.58989133  0.69454144  0.92233426     0.10200
C1420       C  0.57660516  0.67017975  0.93541969    -0.17100
C1421       C  0.56214947  0.62350972  0.93596530    -0.27500
C1422       C  0.56191758  0.60108558  0.92294226     0.18600
C1423       C  0.60177734  0.69579216  0.89532345     0.12500
C1424       C  0.60271211  0.74389881  0.92215364    -0.11800
H1425       H  0.57689546  0.68760785  0.94526407     0.12800
C1426       C  0.54811318  0.55143304  0.92255239    -0.22700
H1427       H  0.57581600  0.60891551  0.89999165     0.08400
C1428       C  0.64722763  0.72312256  0.89063134     0.04800
C1429       C  0.65640620  0.74963229  0.87805362    -0.19900
C1430       C  0.62104610  0.74882730  0.87004678    -0.12200
C1431       C  0.57545902  0.71840171  0.87412481     0.13500
C1432       C  0.56640425  0.69226624  0.88670921    -0.22600
C1433       C  0.68593763  0.72517852  0.89908702    -0.05700
H1434       H  0.69128445  0.77339088  0.87502718     0.15000
C1435       C  0.53569169  0.71490816  0.86589796    -0.15900
H1436       H  0.53151781  0.67053836  0.89018310     0.09300
H1437       H  0.56935635  0.54491712  0.93015928     0.07200
H1438       H  0.55256334  0.54070000  0.91162259     0.08400
H1439       H  0.51165209  0.53003775  0.92545861     0.07500
H1440       H  0.57954997  0.74854258  0.91485062     0.02300
H1441       H  0.63816446  0.76537617  0.91827281     0.02800
H1442       H  0.60022588  0.75602665  0.93307657     0.06300
H1443       H  0.71928077  0.74812585  0.89389598     0.05300
H1444       H  0.68161418  0.69064127  0.89976663    -0.00500
H1445       H  0.68661871  0.73786368  0.91017486     0.01000
H1446       H  0.51292438  0.67908392  0.86254317     0.04700
H1447       H  0.54616620  0.73622113  0.85600417     0.06600
H1448       H  0.51637087  0.72569889  0.87293957     0.07500
C1449       C  0.31319028  0.34564989  0.92443866    -0.22100
C1450       C  0.33485131  0.35952425  0.91099864     0.09800
C1451       C  0.38260056  0.38726919  0.91048062     0.10200
C1452       C  0.40721505  0.40269194  0.92345834    -0.17100
C1453       C  0.38533583  0.39119323  0.93704944    -0.27500
C1454       C  0.33745291  0.36059646  0.93744733     0.18600
C1455       C  0.30579805  0.34915902  0.89794191     0.12500
C1456       C  0.40755843  0.40084463  0.89624631    -0.11800
H1457       H  0.44369933  0.42521884  0.92291684     0.12800
C1458       C  0.31062519  0.34464179  0.95135804    -0.22700
H1459       H  0.27645557  0.32456634  0.92473741     0.08400
C1460       C  0.27697992  0.30416218  0.89304547     0.04800
C1461       C  0.24368732  0.29568736  0.88257432    -0.19900
C1462       C  0.23903049  0.33127754  0.87681591    -0.12200
C1463       C  0.27004054  0.37657013  0.88097443     0.13500
C1464       C  0.30262076  0.38483775  0.89157104    -0.22600
C1465       C  0.28103172  0.26514939  0.89897481    -0.05700
H1466       H  0.21997820  0.26104131  0.87931450     0.15000
C1467       C  0.26875119  0.41686942  0.87476230    -0.15900
H1468       H  0.32450274  0.41935562  0.89533937     0.09300
H1469       H  0.32358812  0.32665278  0.95809729     0.07200
H1470       H  0.27397553  0.32045153  0.94940447     0.08400
H1471       H  0.31294435  0.37400747  0.95734524     0.07500
H1472       H  0.39693404  0.42144446  0.88985035     0.02300
H1473       H  0.39996383  0.36987054  0.89004611     0.02800
H1474       H  0.44493834  0.42144280  0.89777374     0.06300
H1475       H  0.25690914  0.23252076  0.89364993     0.05300
H1476       H  0.27359501  0.26117740  0.91072648    -0.00500
H1477       H  0.31605313  0.27168062  0.89711986     0.01000
H1478       H  0.26101056  0.43440823  0.88347487     0.04700
H1479       H  0.24308478  0.40738707  0.86611780     0.06600
H1480       H  0.30241803  0.44102324  0.86999273     0.07500
C1481       C  0.74831565  0.95798935  0.99312678    -0.22100
C1482       C  0.78853414  0.99784351  0.99680140     0.09800
C1483       C  0.78720401  0.03769240  0.00009543     0.10200
C1484       C  0.74531768  0.03655107  0.99986173    -0.17100
C1485       C  0.70501405  0.99661195  0.99622101    -0.27500
C1486       C  0.70653591  0.95683361  0.99276877     0.18600
C1487       C  0.83175446  0.99716393  0.99701624     0.12500
C1488       C  0.83004691  0.08133236  0.00378908    -0.11800
H1489       H  0.74399359  0.06691172  0.00248939     0.12800
C1490       C  0.66478476  0.91251343  0.98877240    -0.22700
H1491       H  0.74953784  0.92750982  0.99055826     0.08400
C1492       C  0.84719152  0.98609040  0.00965215     0.04800
C1493       C  0.88896715  0.98717783  0.00940659    -0.19900
C1494       C  0.91493510  0.99754062  0.99668445    -0.12200
C1495       C  0.89856944  0.00719624  0.98390674     0.13500
C1496       C  0.85747029  0.00742177  0.98429712    -0.22600
C1497       C  0.81935081  0.97274456  0.02332763    -0.05700
H1498       H  0.90145994  0.97976563  0.01918291     0.15000
C1499       C  0.92298871  0.01677951  0.96964600    -0.15900
H1500       H  0.84514884  0.01529784  0.97456016     0.09300
H1501       H  0.66014325  0.88569135  0.99657066     0.07200
H1502       H  0.66918522  0.90222234  0.97777222     0.08400
H1503       H  0.63325539  0.91444790  0.98880740     0.07500
H1504       H  0.85436700  0.09188574  0.99461046     0.02300
H1505       H  0.84603481  0.07632873  0.01351456     0.02800
H1506       H  0.82313723  0.10935013  0.00604965     0.06300
H1507       H  0.83623502  0.96487133  0.03219344     0.05300
H1508       H  0.78576430  0.94198304  0.02133052    -0.00500
H1509       H  0.81416497  0.00091312  0.02693614     0.01000
H1510       H  0.90022933  0.99175698  0.96150386     0.04700
H1511       H  0.95420499  0.01450793  0.97020775     0.06600
H1512       H  0.93223229  0.05139329  0.96592569     0.07500
C1513       C  0.15127963  0.00958478  0.01588406    -0.22100
C1514       C  0.16656690  0.99430048  0.00428432     0.09800
C1515       C  0.14006405  0.97831009  0.99165673     0.10200
C1516       C  0.10002387  0.98024932  0.99060763    -0.17100
C1517       C  0.08483459  0.99632325  0.00207001    -0.27500
C1518       C  0.11026515  0.00996337  0.01506295     0.18600
C1519       C  0.21070603  0.99575592  0.00539240     0.12500
C1520       C  0.15375017  0.95863135  0.97936205    -0.11800
H1521       H  0.08045290  0.96931171  0.98072585     0.12800
C1522       C  0.09481009  0.02393175  0.02837476    -0.22700
H1523       H  0.17133015  0.02097529  0.02568060     0.08400
C1524       C  0.25052440  0.03176502  0.99923485     0.04800
C1525       C  0.29075734  0.02992147  0.99935945    -0.19900
C1526       C  0.29252686  0.99344538  0.00580499    -0.12200
C1527       C  0.25270386  0.95786138  0.01234094     0.13500
C1528       C  0.21233679  0.95963942  0.01206245    -0.22600
C1529       C  0.25065783  0.07249036  0.99277500    -0.05700
H1530       H  0.32136841  0.05765840  0.99461484     0.15000
C1531       C  0.25067584  0.91663399  0.01914849    -0.15900
H1532       H  0.18153703  0.93202116  0.01676494     0.09300
H1533       H  0.12034988  0.05949500  0.03125070     0.07200
H1534       H  0.09161536  0.00138497  0.03751794     0.08400
H1535       H  0.06140827  0.02158913  0.02699854     0.07500
H1536       H  0.15590980  0.92894018  0.98328017     0.02300
H1537       H  0.18731479  0.98449136  0.97497756     0.02800
H1538       H  0.12874480  0.94696072  0.97040393     0.06300
H1539       H  0.28484203  0.09806396  0.98867383     0.05300
H1540       H  0.24042887  0.08896906  0.00114269    -0.00500
H1541       H  0.22641567  0.06193333  0.98364440     0.01000
H1542       H  0.24299498  0.91572307  0.03085353     0.04700
H1543       H  0.28246253  0.91562096  0.01788296     0.06600
H1544       H  0.22320913  0.88539870  0.01399050     0.07500
C1545       C  0.41005588  0.02174701  0.91114603    -0.22100
C1546       C  0.36246956  0.99902203  0.91033055     0.09800
C1547       C  0.33681814  0.99077646  0.92317147     0.10200
C1548       C  0.35932523  0.00454225  0.93651265    -0.17100
C1549       C  0.40665991  0.02378807  0.93747227    -0.27500
C1550       C  0.43251106  0.03423439  0.92453634     0.18600
C1551       C  0.33995207  0.97661940  0.89654861     0.12500
C1552       C  0.28554490  0.96324632  0.92304870    -0.11800
H1553       H  0.33937454  0.99583453  0.94635722     0.12800
C1554       C  0.48367320  0.05756396  0.92445477    -0.22700
H1555       H  0.42969099  0.02774948  0.90132462     0.08400
C1556       C  0.31524411  0.99124951  0.88808237     0.04800
C1557       C  0.28643684  0.96255368  0.87711188    -0.19900
C1558       C  0.28381258  0.92083664  0.87398512    -0.12200
C1559       C  0.31303883  0.90928851  0.88132665     0.13500
C1560       C  0.34004404  0.93686494  0.89266128    -0.22600
C1561       C  0.31987559  0.03720044  0.89046324    -0.05700
H1562       H  0.26481976  0.97195266  0.87127997     0.15000
C1563       C  0.31575350  0.86753045  0.87767600    -0.15900
H1564       H  0.36020533  0.92638702  0.89886471     0.09300
H1565       H  0.49770657  0.08819827  0.91744361     0.07200
H1566       H  0.49450457  0.03407150  0.92009993     0.08400
H1567       H  0.49863499  0.06915500  0.93532857     0.07500
H1568       H  0.27418302  0.92917338  0.91833810     0.02300
H1569       H  0.27133327  0.98051412  0.91659480     0.02800
H1570       H  0.27104120  0.95820425  0.93411034     0.06300
H1571       H  0.29839357  0.04334640  0.88284094     0.05300
H1572       H  0.35582436  0.06408259  0.88871093    -0.00500
H1573       H  0.30987881  0.04038122  0.90160168     0.01000
H1574       H  0.35153445  0.87769490  0.87513942     0.04700
H1575       H  0.29499961  0.84903437  0.86814680     0.06600
H1576       H  0.30411231  0.84397810  0.88706310     0.07500
C1577       C  0.59169454  0.91163427  0.91984312    -0.22100
C1578       C  0.58893298  0.93476660  0.90768213     0.09800
C1579       C  0.57053774  0.96351064  0.90907108     0.10200
C1580       C  0.55549361  0.96866826  0.92265768    -0.17100
C1581       C  0.55865109  0.94598754  0.93490053    -0.27500
C1582       C  0.57666572  0.91672212  0.93346778     0.18600
C1583       C  0.60266995  0.92562394  0.89348384     0.12500
C1584       C  0.56767719  0.98942793  0.89630984    -0.11800
H1585       H  0.54202737  0.99140259  0.92380187     0.12800
C1586       C  0.57891963  0.88902200  0.94581377    -0.22700
H1587       H  0.60491409  0.88870858  0.91861940     0.08400
C1588       C  0.64860655  0.94096175  0.89010334     0.04800
C1589       C  0.65897059  0.92405926  0.87772552    -0.19900
C1590       C  0.62430741  0.89219211  0.86880183    -0.12200
C1591       C  0.57875544  0.88024284  0.87149659     0.13500
C1592       C  0.56847582  0.89705478  0.88384980    -0.22600
C1593       C  0.68638667  0.97371791  0.89982292    -0.05700
H1594       H  0.69376246  0.93263478  0.87568914     0.15000
C1595       C  0.53995012  0.84708923  0.86214725    -0.15900
H1596       H  0.53324207  0.88560011  0.88643649     0.09300
H1597       H  0.61494593  0.89959167  0.94801692     0.07200
H1598       H  0.56036136  0.85243748  0.94283033     0.08400
H1599       H  0.56329619  0.89235217  0.95590175     0.07500
H1600       H  0.54523935  0.96541453  0.88790744     0.02300
H1601       H  0.60214557  0.01141479  0.89169046     0.02800
H1602       H  0.55362128  0.01146219  0.89941103     0.06300
H1603       H  0.72031900  0.98283734  0.89541900     0.05300
H1604       H  0.68296729  0.95835055  0.91065696    -0.00500
H1605       H  0.68490665  0.00543855  0.90093514     0.01000
H1606       H  0.51673688  0.81647308  0.86858220     0.04700
H1607       H  0.55146293  0.83601088  0.85256639     0.06600
H1608       H  0.52076801  0.86335966  0.85819564     0.07500
C1609       C  0.96993724  0.69029026  0.10736143    -0.22100
C1610       C  0.95518186  0.64537144  0.10311002     0.09800
C1611       C  0.91735997  0.60921658  0.11016181     0.10200
C1612       C  0.89355051  0.61893438  0.12063343    -0.17100
C1613       C  0.90626735  0.66391916  0.12413467    -0.27500
C1614       C  0.94565640  0.70008848  0.11767584     0.18600
C1615       C  0.97481512  0.63679448  0.08989902     0.12500
C1616       C  0.90042183  0.56041818  0.10603720    -0.11800
H1617       H  0.86319266  0.59134062  0.12552940     0.12800
C1618       C  0.96156304  0.74931844  0.12079778    -0.22700
H1619       H  0.99899417  0.71801290  0.10196808     0.08400
C1620       C  0.96247079  0.64418167  0.07605503     0.04800
C1621       C  0.97424157  0.62795336  0.06382417    -0.19900
C1622       C  0.99753716  0.60367902  0.06497609    -0.12200
C1623       C  0.01314845  0.59962036  0.07881745     0.13500
C1624       C  0.00151808  0.61625823  0.09108531    -0.22600
C1625       C  0.93466427  0.66705176  0.07418939    -0.05700
H1626       H  0.96262518  0.63201329  0.05334114     0.15000
C1627       C  0.04205023  0.57805811  0.08084370    -0.15900
H1628       H  0.01161909  0.61149358  0.10173828     0.09300
H1629       H  0.96141839  0.76669105  0.11066188     0.07200
H1630       H  0.99674044  0.76610160  0.12509278     0.08400
H1631       H  0.93996055  0.75389282  0.12880540     0.07500
H1632       H  0.92720707  0.55170672  0.10815021     0.02300
H1633       H  0.89144898  0.55535791  0.09439424     0.02800
H1634       H  0.86974805  0.53650257  0.11233537     0.06300
H1635       H  0.92676715  0.66885431  0.06265716     0.05300
H1636       H  0.95375575  0.70235355  0.07838738    -0.00500
H1637       H  0.90200206  0.64780283  0.08014741     0.01000
H1638       H  0.05410316  0.58133882  0.09215928     0.04700
H1639       H  0.07240167  0.59497997  0.07370637     0.06600
H1640       H  0.02224034  0.54125917  0.07835274     0.07500
C1641       C  0.69750562  0.60816119  0.10761555    -0.22100
C1642       C  0.69484009  0.64507257  0.10209541     0.09800
C1643       C  0.72266872  0.68888498  0.10790700     0.10200
C1644       C  0.75512421  0.69535447  0.11840798    -0.17100
C1645       C  0.75965492  0.65878057  0.12330937    -0.27500
C1646       C  0.72933979  0.61437115  0.11823368     0.18600
C1647       C  0.66605790  0.63718251  0.08923298     0.12500
C1648       C  0.71856320  0.72870483  0.10284240    -0.11800
H1649       H  0.77826321  0.72928670  0.12239150     0.12800
C1650       C  0.73029697  0.57301080  0.12357721    -0.22700
H1651       H  0.67563486  0.57444548  0.10322734     0.08400
C1652       C  0.68434365  0.64202070  0.07523180     0.04800
C1653       C  0.65515341  0.62775311  0.06331278    -0.19900
C1654       C  0.60770388  0.60706627  0.06500709    -0.12200
C1655       C  0.58967912  0.60430218  0.07906855     0.13500
C1656       C  0.61926253  0.61965450  0.09100005    -0.22600
C1657       C  0.73441137  0.65984373  0.07289971    -0.05700
H1658       H  0.66946790  0.63006496  0.05265944     0.15000
C1659       C  0.53958435  0.58517725  0.08167550    -0.15900
H1660       H  0.60566918  0.61621602  0.10182628     0.09300
H1661       H  0.73877911  0.55726365  0.11448491     0.07200
H1662       H  0.69629300  0.54789361  0.12791606     0.08400
H1663       H  0.75531972  0.58088859  0.13233426     0.07500
H1664       H  0.68354293  0.72183459  0.10494807     0.02300
H1665       H  0.72571064  0.73427044  0.09109304     0.02800
H1666       H  0.74272265  0.76051494  0.10855956     0.06300
H1667       H  0.74290680  0.66074327  0.06126316     0.05300
H1668       H  0.74465744  0.63762288  0.07853697    -0.00500
H1669       H  0.75458815  0.69492096  0.07718576     0.01000
H1670       H  0.52046974  0.54824034  0.07926360     0.04700
H1671       H  0.52703184  0.60324032  0.07479172     0.06600
H1672       H  0.53238665  0.58930985  0.09311532     0.07500
C1673       C  0.65254983  0.16883943  0.32060345    -0.22100
C1674       C  0.66853214  0.15900016  0.33324936     0.09800
C1675       C  0.68175554  0.18941348  0.34500134     0.10200
C1676       C  0.67612663  0.22751625  0.34415350    -0.17100
C1677       C  0.65983362  0.23744890  0.33154470    -0.27500
C1678       C  0.64888824  0.20809841  0.31948650     0.18600
C1679       C  0.66864899  0.11540711  0.33426027     0.12500
C1680       C  0.70229565  0.18190931  0.35835943    -0.11800
H1681       H  0.68448192  0.24978252  0.35340755     0.12800
C1682       C  0.63379772  0.21724236  0.30525265    -0.22700
H1683       H  0.64285497  0.14567388  0.31152323     0.08400
C1684       C  0.63163971  0.07645842  0.34051210     0.04800
C1685       C  0.63272068  0.03578351  0.34131117    -0.19900
C1686       C  0.66933931  0.03263918  0.33566075    -0.12200
C1687       C  0.70631984  0.07155731  0.32928366     0.13500
C1688       C  0.70561258  0.11258667  0.32873985    -0.22600
C1689       C  0.59044875  0.07754546  0.34599067    -0.05700
H1690       H  0.60410533  0.00575484  0.34599854     0.15000
C1691       C  0.74711609  0.07110584  0.32314959    -0.15900
H1692       H  0.73399615  0.14253750  0.32392739     0.09300
H1693       H  0.59891870  0.18921726  0.30279492     0.07200
H1694       H  0.65714605  0.21891290  0.29656648     0.08400
H1695       H  0.63391351  0.24979156  0.30514343     0.07500
H1696       H  0.73374937  0.18157408  0.35539023     0.02300
H1697       H  0.67795925  0.14896428  0.36347529     0.02800
H1698       H  0.71141127  0.20928352  0.36644569     0.06300
H1699       H  0.56425774  0.04401931  0.35035635     0.05300
H1700       H  0.57493991  0.08673909  0.33703271    -0.00500
H1701       H  0.60027386  0.10305030  0.35474490     0.01000
H1702       H  0.75046927  0.07972343  0.31147244     0.04700
H1703       H  0.74498094  0.03766626  0.32434116     0.06600
H1704       H  0.77823267  0.09685252  0.32881696     0.07500
C1705       C  0.62956235  0.45632947  0.34344494    -0.22100
C1706       C  0.63470075  0.47794664  0.33012560     0.09800
C1707       C  0.64550514  0.46123212  0.31769583     0.10200
C1708       C  0.65111049  0.42323026  0.31889667    -0.17100
C1709       C  0.64572167  0.40129921  0.33221229    -0.27500
C1710       C  0.63475125  0.41809358  0.34465750     0.18600
C1711       C  0.63334807  0.52076637  0.32972922     0.12500
C1712       C  0.65135119  0.48368314  0.30320523    -0.11800
H1713       H  0.65896976  0.40996403  0.30935421     0.12800
C1714       C  0.62862776  0.39695447  0.35937167    -0.22700
H1715       H  0.62194882  0.46974948  0.35300472     0.08400
C1716       C  0.59314084  0.52173945  0.32683277     0.04800
C1717       C  0.59480065  0.56394416  0.32623228    -0.19900
C1718       C  0.63559123  0.60475763  0.32879236    -0.12200
C1719       C  0.67560903  0.60338575  0.33189794     0.13500
C1720       C  0.67385983  0.56142804  0.33231812    -0.22600
C1721       C  0.54869328  0.47831912  0.32454969    -0.05700
H1722       H  0.56415865  0.56508131  0.32398195     0.15000
C1723       C  0.72112940  0.64546596  0.33452420    -0.15900
H1724       H  0.70459884  0.56041391  0.33457234     0.09300
H1725       H  0.59380522  0.38573413  0.36339588     0.07200
H1726       H  0.65357538  0.42249596  0.36697874     0.08400
H1727       H  0.63346757  0.36717462  0.35935246     0.07500
H1728       H  0.67935838  0.51960632  0.30372389     0.02300
H1729       H  0.61944156  0.48279147  0.30012795     0.02800
H1730       H  0.65969079  0.46624939  0.29460848     0.06300
H1731       H  0.52042803  0.48499718  0.32254838     0.05300
H1732       H  0.54008502  0.45638793  0.33428585    -0.00500
H1733       H  0.55142860  0.45977858  0.31509892     0.01000
H1734       H  0.73299180  0.64409664  0.34557701     0.04700
H1735       H  0.72051865  0.67756126  0.33345650     0.06600
H1736       H  0.74625134  0.64676125  0.32657501     0.07500
C1737       C  0.57110762  0.92318689  0.41141778    -0.22100
C1738       C  0.59515241  0.92220923  0.42357575     0.09800
C1739       C  0.62240284  0.90202099  0.42259180     0.10200
C1740       C  0.62511321  0.88332416  0.40939373    -0.17100
C1741       C  0.60158221  0.88482174  0.39715075    -0.27500
C1742       C  0.57393767  0.90473489  0.39817843     0.18600
C1743       C  0.58849685  0.93991676  0.43738872     0.12500
C1744       C  0.64939086  0.90119876  0.43533638    -0.11800
H1745       H  0.64671935  0.86849476  0.40851193     0.12800
C1746       C  0.54586029  0.90576075  0.38577584    -0.22700
H1747       H  0.54941823  0.93791851  0.41234144     0.08400
C1748       C  0.60587614  0.98686595  0.43959277     0.04800
C1749       C  0.59063336  0.00108809  0.45150837    -0.19900
C1750       C  0.55835689  0.96925371  0.46110492    -0.12200
C1751       C  0.54453251  0.92272484  0.45964655     0.13500
C1752       C  0.55972237  0.90857827  0.44775875    -0.22600
C1753       C  0.63898045  0.02164405  0.42908070    -0.05700
H1754       H  0.60081220  0.03668644  0.45263039     0.15000
C1755       C  0.51129339  0.88696357  0.46990209    -0.15900
H1756       H  0.54677938  0.87256191  0.44609493     0.09300
H1757       H  0.55735872  0.94159852  0.38284253     0.07200
H1758       H  0.50957224  0.88877779  0.38908904     0.08400
H1759       H  0.54784891  0.88793120  0.37603207     0.07500
H1760       H  0.62616443  0.88147498  0.44432974     0.02300
H1761       H  0.67289581  0.93651508  0.43901386     0.02800
H1762       H  0.66994405  0.88520911  0.43256584     0.06300
H1763       H  0.64975049  0.05686649  0.43258403     0.05300
H1764       H  0.62317689  0.01638434  0.41825913    -0.00500
H1765       H  0.66974531  0.01837122  0.42825102     0.01000
H1766       H  0.47987453  0.86301893  0.46399014     0.04700
H1767       H  0.50184236  0.90166436  0.47904332     0.06600
H1768       H  0.52671019  0.86772897  0.47450299     0.07500
C1769       C  0.66096829  0.71706948  0.42342196    -0.22100
C1770       C  0.63529718  0.66942729  0.42435060     0.09800
C1771       C  0.62069726  0.64378772  0.41143119     0.10200
C1772       C  0.63296939  0.66625122  0.39798879    -0.17100
C1773       C  0.65711135  0.71396721  0.39700841    -0.27500
C1774       C  0.67192827  0.73967691  0.40996798     0.18600
C1775       C  0.61863978  0.64717352  0.43875709     0.12500
C1776       C  0.58873225  0.59298423  0.41175759    -0.11800
H1777       H  0.62042569  0.64642718  0.38816826     0.12800
C1778       C  0.69927560  0.79091559  0.41005858    -0.22700
H1779       H  0.67149548  0.73686166  0.43329610     0.08400
C1780       C  0.63411173  0.61976772  0.44523369     0.04800
C1781       C  0.60948151  0.59101855  0.45690594    -0.19900
C1782       C  0.57109964  0.59080467  0.46263876    -0.12200
C1783       C  0.55969367  0.62285200  0.45733074     0.13500
C1784       C  0.58313184  0.65009219  0.44537679    -0.22600
C1785       C  0.67653091  0.62101655  0.43986309    -0.05700
H1786       H  0.61865324  0.56690810  0.46102287     0.15000
C1787       C  0.52104552  0.62711390  0.46356413    -0.15900
H1788       H  0.57205593  0.67214666  0.44073411     0.09300
H1789       H  0.73107948  0.80226707  0.41625415     0.07200
H1790       H  0.67930187  0.80458112  0.41533408     0.08400
H1791       H  0.70933003  0.80580838  0.39909705     0.07500
H1792       H  0.55710481  0.58516753  0.41761943     0.02300
H1793       H  0.60460419  0.57557339  0.41724021     0.02800
H1794       H  0.57912013  0.57857061  0.40070790     0.06300
H1795       H  0.68396289  0.59774384  0.44615748     0.05300
H1796       H  0.70586529  0.65608741  0.44098533    -0.00500
H1797       H  0.67329519  0.61102970  0.42834893     0.01000
H1798       H  0.53384756  0.66285681  0.46692914     0.04700
H1799       H  0.50547354  0.60526331  0.47320283     0.06600
H1800       H  0.49428851  0.61763809  0.45525951     0.07500
C1801       C  0.68808278  0.73730827  0.24049765    -0.22100
C1802       C  0.72989537  0.73910110  0.23919204     0.09800
C1803       C  0.75772747  0.74842941  0.25150179     0.10200
C1804       C  0.74255985  0.75485673  0.26495521    -0.17100
C1805       C  0.70093481  0.75356988  0.26624188    -0.27500
C1806       C  0.67335860  0.74480284  0.25385148     0.18600
C1807       C  0.74460851  0.73194979  0.22483046     0.12500
C1808       C  0.80413594  0.75328547  0.25031951    -0.11800
H1809       H  0.76404191  0.76272596  0.27439040     0.12800
C1810       C  0.62833064  0.74328763  0.25429612    -0.22700
H1811       H  0.66701352  0.73046640  0.23100390     0.08400
C1812       C  0.73977295  0.68960866  0.22100943     0.04800
C1813       C  0.76132213  0.68646168  0.20848688    -0.19900
C1814       C  0.78753602  0.72469940  0.19975650    -0.12200
C1815       C  0.78870464  0.76593617  0.20285685     0.13500
C1816       C  0.76709011  0.76906759  0.21538872    -0.22600
C1817       C  0.71335766  0.64827647  0.23043435    -0.05700
H1818       H  0.76074239  0.65497310  0.20610636     0.15000
C1819       C  0.81430858  0.80762185  0.19353791    -0.15900
H1820       H  0.76986138  0.80130432  0.21820806     0.09300
H1821       H  0.60110533  0.70957250  0.25044634     0.07200
H1822       H  0.62977004  0.77005103  0.24707851     0.08400
H1823       H  0.61875219  0.74859843  0.26527106     0.07500
H1824       H  0.82546819  0.78120035  0.24267433     0.02300
H1825       H  0.80124691  0.72120481  0.24632750     0.02800
H1826       H  0.82173967  0.76141485  0.26091412     0.06300
H1827       H  0.71298997  0.61791739  0.22585525     0.05300
H1828       H  0.67767197  0.64057148  0.23142226    -0.00500
H1829       H  0.72864043  0.65446027  0.24135969     0.01000
H1830       H  0.79065318  0.81888987  0.18972364     0.04700
H1831       H  0.82969274  0.80131266  0.18387949     0.06600
H1832       H  0.84182357  0.83540659  0.19993097     0.07500
C1833       C  0.44329336  0.06464316  0.32757827    -0.22100
C1834       C  0.44617814  0.10128000  0.33533415     0.09800
C1835       C  0.40775341  0.09621436  0.34285810     0.10200
C1836       C  0.36707578  0.05407333  0.34253041    -0.17100
C1837       C  0.36403029  0.01760842  0.33455908    -0.27500
C1838       C  0.40268590  0.02281619  0.32706136     0.18600
C1839       C  0.48907951  0.14536048  0.33460463     0.12500
C1840       C  0.40935612  0.13563659  0.35079956    -0.11800
H1841       H  0.33725613  0.04990232  0.34817168     0.12800
C1842       C  0.40255349  0.98499930  0.31849750    -0.22700
H1843       H  0.47291131  0.06889937  0.32176354     0.08400
C1844       C  0.52251973  0.15912204  0.34540830     0.04800
C1845       C  0.56231635  0.20159248  0.34418244    -0.19900
C1846       C  0.56999835  0.23001305  0.33220972    -0.12200
C1847       C  0.53744384  0.21466625  0.32095569     0.13500
C1848       C  0.49708961  0.17287988  0.32245110    -0.22600
C1849       C  0.51655614  0.12874651  0.35806129    -0.05700
H1850       H  0.58743836  0.21302025  0.35271569     0.15000
C1851       C  0.54440992  0.24049595  0.30706315    -0.15900
H1852       H  0.47177327  0.16131922  0.31395771     0.09300
H1853       H  0.42903777  0.97828381  0.32279355     0.07200
H1854       H  0.41036398  0.99542043  0.30699610     0.08400
H1855       H  0.36967823  0.95259956  0.31895339     0.07500
H1856       H  0.41888967  0.16419892  0.34318640     0.02300
H1857       H  0.43491618  0.14731743  0.35955951     0.02800
H1858       H  0.37595363  0.12630543  0.35569951     0.06300
H1859       H  0.54642531  0.14451146  0.36536946     0.05300
H1860       H  0.51236419  0.09606124  0.35409673    -0.00500
H1861       H  0.48608880  0.12173541  0.36443416     0.01000
H1862       H  0.54298198  0.21904210  0.29781108     0.04700
H1863       H  0.57756392  0.27254123  0.30654660     0.06600
H1864       H  0.51688365  0.24864774  0.30576561     0.07500
C1865       C  0.90565833  0.52190087  0.33275681    -0.22100
C1866       C  0.86817755  0.52706725  0.32962215     0.09800
C1867       C  0.87515015  0.57080577  0.32669078     0.10200
C1868       C  0.91964513  0.60811560  0.32637614    -0.17100
C1869       C  0.95729474  0.60325217  0.32962054    -0.27500
C1870       C  0.95016570  0.55949211  0.33290895     0.18600
C1871       C  0.82182525  0.48643068  0.32992605     0.12500
C1872       C  0.83560344  0.57852562  0.32465209    -0.11800
H1873       H  0.92494343  0.64178531  0.32423947     0.12800
C1874       C  0.98848017  0.55096937  0.33631309    -0.22700
H1875       H  0.90009426  0.48826732  0.33515566     0.08400
C1876       C  0.79902041  0.46407457  0.31712891     0.04800
C1877       C  0.75523427  0.42568155  0.31804573    -0.19900
C1878       C  0.73474405  0.40765837  0.33146427    -0.12200
C1879       C  0.75811562  0.42958449  0.34428308     0.13500
C1880       C  0.80093607  0.46920524  0.34332907    -0.22600
C1881       C  0.82178997  0.47915233  0.30258101    -0.05700
H1882       H  0.73765949  0.40833268  0.30826535     0.15000
C1883       C  0.73984500  0.41129258  0.35912216    -0.15900
H1884       H  0.81880652  0.48606264  0.35313976     0.09300
H1885       H  0.98787371  0.52575407  0.32856725     0.07200
H1886       H  0.98409746  0.53706349  0.34743054     0.08400
H1887       H  0.02241600  0.58200791  0.33550916     0.07500
H1888       H  0.81385535  0.56729697  0.33447941     0.02300
H1889       H  0.81482972  0.55905710  0.31525516     0.02800
H1890       H  0.84712642  0.61500865  0.32279396     0.06300
H1891       H  0.79957293  0.45713994  0.29375169     0.05300
H1892       H  0.85347274  0.47738964  0.30248000    -0.00500
H1893       H  0.83043302  0.51455621  0.30025356     0.01000
H1894       H  0.76465712  0.40525156  0.36503368     0.04700
H1895       H  0.70719954  0.37871346  0.35885415     0.06600
H1896       H  0.73481078  0.43654160  0.36520093     0.07500
C1897       C  0.02810614  0.70620540  0.42228337    -0.22100
C1898       C  0.01747715  0.66069686  0.42297999     0.09800
C1899       C  0.01751097  0.63818503  0.41016518     0.10200
C1900       C  0.03115594  0.66255778  0.39715109    -0.17100
C1901       C  0.04557454  0.70919655  0.39659877    -0.27500
C1902       C  0.04168859  0.73066852  0.40921045     0.18600
C1903       C  0.01168145  0.63839190  0.43725028     0.12500
C1904       C  0.00592593  0.58915313  0.41033572    -0.11800
H1905       H  0.03366575  0.64570504  0.38754340     0.12800
C1906       C  0.05112802  0.77892903  0.40927908    -0.22700
H1907       H  0.02706627  0.72311931  0.43208565     0.08400
C1908       C  0.04993734  0.64845265  0.44580681     0.04800
C1909       C  0.04497429  0.62017448  0.45753276    -0.19900
C1910       C  0.00288795  0.58172919  0.46074205    -0.12200
C1911       C  0.96400808  0.57344186  0.45282197     0.13500
C1912       C  0.96882163  0.60219336  0.44123024    -0.22600
C1913       C  0.09658562  0.68710958  0.44198137    -0.05700
H1914       H  0.07470307  0.62608247  0.46357066     0.15000
C1915       C  0.91752789  0.53343827  0.45592912    -0.15900
H1916       H  0.93944130  0.59466948  0.43471282     0.09300
H1917       H  0.08097572  0.80022485  0.41621957     0.07200
H1918       H  0.02111645  0.77959721  0.41370487     0.08400
H1919       H  0.05745253  0.79412601  0.39833452     0.07500
H1920       H  0.97029100  0.56704340  0.41398776     0.02300
H1921       H  0.02913100  0.58498909  0.41776442     0.02800
H1922       H  0.00925495  0.57736993  0.39944870     0.06300
H1923       H  0.12285957  0.68936739  0.44956677     0.05300
H1924       H  0.09683653  0.71982032  0.44244721    -0.00500
H1925       H  0.10604745  0.68215875  0.43091899     0.01000
H1926       H  0.89355541  0.54577381  0.45825504     0.04700
H1927       H  0.91723828  0.51323287  0.46536928     0.06600
H1928       H  0.90523377  0.51073507  0.44635650     0.07500
C1929       C  0.34497494  0.89917166  0.41347449    -0.22100
C1930       C  0.32653162  0.91436239  0.42418271     0.09800
C1931       C  0.28429550  0.91147071  0.42183620     0.10200
C1932       C  0.26144833  0.89353765  0.40872685    -0.17100
C1933       C  0.28060956  0.87979319  0.39773922    -0.27500
C1934       C  0.32274556  0.88221627  0.40023069     0.18600
C1935       C  0.35353034  0.93490909  0.43743646     0.12500
C1936       C  0.26414562  0.92860436  0.43295800    -0.11800
H1937       H  0.22934414  0.89205973  0.40679992     0.12800
C1938       C  0.34406289  0.86630109  0.38910867    -0.22700
H1939       H  0.37743406  0.90142733  0.41542053     0.08400
C1940       C  0.34962754  0.90817868  0.44960624     0.04800
C1941       C  0.38149020  0.92750431  0.46081461    -0.19900
C1942       C  0.41776235  0.97245247  0.45988812    -0.12200
C1943       C  0.41999530  0.99991576  0.44809640     0.13500
C1944       C  0.38758130  0.98087196  0.43706202    -0.22600
C1945       C  0.31380743  0.85855339  0.45030364    -0.05700
H1946       H  0.38055727  0.90629011  0.46970335     0.15000
C1947       C  0.45784712  0.04849256  0.44643038    -0.15900
H1948       H  0.39049253  0.00129484  0.42768451     0.09300
H1949       H  0.37553067  0.86810325  0.39323418     0.07200
H1950       H  0.35342651  0.88801779  0.37932007     0.08400
H1951       H  0.31980844  0.83041475  0.38616105     0.07500
H1952       H  0.28778804  0.96536560  0.43493880     0.02300
H1953       H  0.25834941  0.90971168  0.44324266     0.02800
H1954       H  0.23110314  0.92425148  0.42935355     0.06300
H1955       H  0.31598506  0.84245964  0.46047776     0.05300
H1956       H  0.31814866  0.84013016  0.44110142    -0.00500
H1957       H  0.27949089  0.85464672  0.44976736     0.01000
H1958       H  0.47782404  0.05177660  0.43653788     0.04700
H1959       H  0.48130574  0.06051567  0.45578638     0.06600
H1960       H  0.44319300  0.07104066  0.44540926     0.07500
C1961       C  0.97716905  0.73764729  0.25216026    -0.22100
C1962       C  0.00212421  0.73969220  0.23983154     0.09800
C1963       C  0.04668199  0.74773653  0.24127625     0.10200
C1964       C  0.06564974  0.75413082  0.25510629    -0.17100
C1965       C  0.04091833  0.75230568  0.26757297    -0.27500
C1966       C  0.99581808  0.74360583  0.26604560     0.18600
C1967       C  0.98111849  0.73506183  0.22551570     0.12500
C1968       C  0.07395344  0.74921078  0.22823220    -0.11800
H1969       H  0.09996829  0.76024385  0.25617781     0.12800
C1970       C  0.96754826  0.74199101  0.27884432    -0.22700
H1971       H  0.94296525  0.73168662  0.25085703     0.08400
C1972       C  0.94806920  0.69225541  0.22012479     0.04800
C1973       C  0.92413725  0.69023260  0.20758235    -0.19900
C1974       C  0.93207022  0.73008378  0.20054180    -0.12200
C1975       C  0.96717174  0.77273021  0.20543436     0.13500
C1976       C  0.99149614  0.77467518  0.21785706    -0.22600
C1977       C  0.93685910  0.64898387  0.22792642    -0.05700
H1978       H  0.89667422  0.65768457  0.20389263     0.15000
C1979       C  0.97816725  0.81673154  0.19817172    -0.15900
H1980       H  0.01717733  0.80747740  0.22200680     0.09300
H1981       H  0.96039395  0.71278597  0.28591803     0.07200
H1982       H  0.93429062  0.73760113  0.27547360     0.08400
H1983       H  0.98582672  0.77421848  0.28504086     0.07500
H1984       H  0.07869529  0.77706669  0.22089014     0.02300
H1985       H  0.05577501  0.71631959  0.22237719     0.02800
H1986       H  0.10808212  0.75524968  0.23127697     0.06300
H1987       H  0.91036718  0.61847026  0.22217748     0.05300
H1988       H  0.92400129  0.64913207  0.23894802    -0.00500
H1989       H  0.96783981  0.64611850  0.22874863     0.01000
H1990       H  0.97200105  0.83820514  0.20582475     0.04700
H1991       H  0.95752470  0.81141747  0.18834297     0.06600
H1992       H  0.01451220  0.83524067  0.19489710     0.07500
C1993       C  0.85425794  0.28359208  0.11208771    -0.22100
C1994       C  0.89074412  0.28823055  0.10375662     0.09800
C1995       C  0.91379805  0.26537591  0.10806401     0.10200
C1996       C  0.89741675  0.23536335  0.11993910    -0.17100
C1997       C  0.85882470  0.22821350  0.12767221    -0.27500
C1998       C  0.83811193  0.25402243  0.12400319     0.18600
C1999       C  0.90254002  0.31509560  0.09013141     0.12500
C2000       C  0.95460925  0.27145519  0.09977830    -0.11800
H2001       H  0.91284763  0.21514794  0.12258483     0.12800
C2002       C  0.79724931  0.24917248  0.13198397    -0.22700
H2003       H  0.83705316  0.30172094  0.10891415     0.08400
C2004       C  0.88282358  0.29447892  0.07680766     0.04800
C2005       C  0.89605845  0.32081725  0.06410095    -0.19900
C2006       C  0.92813056  0.36767828  0.06434302    -0.12200
C2007       C  0.94681653  0.38844314  0.07790915     0.13500
C2008       C  0.93376828  0.36177041  0.09054927    -0.22600
C2009       C  0.84784772  0.24457976  0.07602431    -0.05700
H2010       H  0.88128446  0.30454656  0.05387933     0.15000
C2011       C  0.98155449  0.43830734  0.07926960    -0.15900
H2012       H  0.94840023  0.37731953  0.10086959     0.09300
H2013       H  0.78748338  0.22584507  0.14137724     0.07200
H2014       H  0.76785211  0.23605724  0.12451667     0.08400
H2015       H  0.80486478  0.28293864  0.13609701     0.07500
H2016       H  0.98164925  0.30784393  0.09994030     0.02300
H2017       H  0.94511103  0.26048560  0.08840679     0.02800
H2018       H  0.96865386  0.25116404  0.10453539     0.06300
H2019       H  0.83569102  0.23378076  0.06480383     0.05300
H2020       H  0.81808663  0.23732794  0.08286147    -0.00500
H2021       H  0.86266862  0.22403661  0.07994338     0.01000
H2022       H  0.96627640  0.45900496  0.07595472     0.04700
H2023       H  0.01168402  0.44678698  0.07244681     0.06600
H2024       H  0.99354705  0.44788101  0.09056583     0.07500
C2025       C  0.66822141  0.05907100  0.10893758    -0.22100
C2026       C  0.66800865  0.01940194  0.10471180     0.09800
C2027       C  0.69606085  0.00642570  0.11205737     0.10200
C2028       C  0.72552875  0.03494116  0.12291813    -0.17100
C2029       C  0.72702518  0.07568763  0.12665936    -0.27500
C2030       C  0.69664596  0.08687565  0.11995847     0.18600
C2031       C  0.64224641  0.99599393  0.09146583     0.12500
C2032       C  0.69520291  0.96290083  0.10836082    -0.11800
H2033       H  0.74887592  0.02647213  0.12807342     0.12800
C2034       C  0.69417321  0.12856172  0.12392722    -0.22700
H2035       H  0.64698761  0.06930322  0.10324409     0.08400
C2036       C  0.59461304  0.97657619  0.09065107     0.04800
C2037       C  0.57350144  0.96619607  0.07705843    -0.19900
C2038       C  0.59878729  0.97434396  0.06425022    -0.12200
C2039       C  0.64594765  0.98970478  0.06522839     0.13500
C2040       C  0.66696188  0.00057512  0.07882367    -0.22600
C2041       C  0.56621100  0.96770432  0.10408160    -0.05700
H2042       H  0.53729533  0.95375002  0.07638582     0.15000
C2043       C  0.67525092  0.99820182  0.05201589    -0.15900
H2044       H  0.70359534  0.01584775  0.07949658     0.09300
H2045       H  0.65868069  0.11830891  0.12692662     0.07200
H2046       H  0.71595642  0.14720497  0.13325663     0.08400
H2047       H  0.70465443  0.15200535  0.11452374     0.07500
H2048       H  0.70632976  0.96385505  0.09703231     0.02300
H2049       H  0.66015349  0.93369661  0.10973703     0.02800
H2050       H  0.71815426  0.95726269  0.11546318     0.06300
H2051       H  0.52940335  0.95095382  0.10151874     0.05300
H2052       H  0.57579462  0.00001860  0.10973603    -0.00500
H2053       H  0.57144710  0.94501273  0.11144897     0.01000
H2054       H  0.67413357  0.02403060  0.04497486     0.04700
H2055       H  0.66311168  0.96599128  0.04594753     0.06600
H2056       H  0.71136743  0.01107130  0.05488787     0.07500
C2057       C  0.68109981  0.02662201  0.22207222    -0.22100
C2058       C  0.69354239  0.99607694  0.22764153     0.09800
C2059       C  0.72942332  0.99301214  0.22107037     0.10200
C2060       C  0.75402628  0.02268903  0.20972079    -0.17100
C2061       C  0.74380622  0.05554051  0.20489338    -0.27500
C2062       C  0.70612908  0.05670223  0.21080693     0.18600
C2063       C  0.67368898  0.97264804  0.24157465     0.12500
C2064       C  0.74362829  0.96042102  0.22662818    -0.11800
H2065       H  0.78325868  0.02232826  0.20521715     0.12800
C2066       C  0.69403529  0.09135353  0.20577078    -0.22700
H2067       H  0.65352617  0.02878224  0.22714218     0.08400
C2068       C  0.68901601  0.99640771  0.25476967     0.04800
C2069       C  0.67490189  0.97229734  0.26783354    -0.19900
C2070       C  0.64713953  0.92475865  0.26806826    -0.12200
C2071       C  0.63020172  0.90115112  0.25488179     0.13500
C2072       C  0.64331534  0.92554284  0.24177507    -0.22600
C2073       C  0.72245436  0.04685166  0.25507135    -0.05700
H2074       H  0.68823081  0.99038784  0.27791770     0.15000
C2075       C  0.59840537  0.85044518  0.25458713    -0.15900
H2076       H  0.63149506  0.90757918  0.23160541     0.09300
H2077       H  0.66396533  0.08798135  0.21162388     0.07200
H2078       H  0.68602415  0.08671955  0.19406120     0.08400
H2079       H  0.72303902  0.12620804  0.20763573     0.07500
H2080       H  0.71499120  0.92495314  0.22560091     0.02300
H2081       H  0.75363227  0.96774918  0.23815600     0.02800
H2082       H  0.77297825  0.96319999  0.22047526     0.06300
H2083       H  0.73202570  0.05976458  0.26628525     0.05300
H2084       H  0.70730811  0.06552228  0.24989490    -0.00500
H2085       H  0.75394909  0.05434128  0.24918171     0.01000
H2086       H  0.56798600  0.84149425  0.26132194     0.04700
H2087       H  0.61570748  0.83258451  0.25877753     0.06600
H2088       H  0.58676667  0.83795867  0.24344246     0.07500
C2089       C  0.42437539  0.30821396  0.11680844    -0.22100
C2090       C  0.39001691  0.30538043  0.10779658     0.09800
C2091       C  0.34403508  0.27598506  0.11173911     0.10200
C2092       C  0.33369430  0.24749509  0.12390805    -0.17100
C2093       C  0.36824597  0.24809737  0.13230908    -0.27500
C2094       C  0.41409102  0.28034925  0.12905683     0.18600
C2095       C  0.40311738  0.33009885  0.09367906     0.12500
C2096       C  0.30591375  0.27392810  0.10293596    -0.11800
H2097       H  0.29858944  0.22244756  0.12629223     0.12800
C2098       C  0.45308213  0.28432803  0.13786003    -0.22700
H2099       H  0.45967569  0.33077564  0.11387841     0.08400
C2100       C  0.42543641  0.37796837  0.09276359     0.04800
C2101       C  0.43823875  0.39928525  0.07913836    -0.19900
C2102       C  0.42887061  0.37404165  0.06622770    -0.12200
C2103       C  0.40650069  0.32576448  0.06726027     0.13500
C2104       C  0.39455802  0.30476369  0.08093841    -0.22600
C2105       C  0.43472067  0.40660896  0.10612399    -0.05700
H2106       H  0.45482492  0.43600489  0.07860094     0.15000
C2107       C  0.39526338  0.29564331  0.05414984    -0.15900
H2108       H  0.37818750  0.26806810  0.08173432     0.09300
H2109       H  0.47382175  0.31971602  0.14189161     0.07200
H2110       H  0.47482265  0.27619685  0.13098823     0.08400
H2111       H  0.44168332  0.26135752  0.14737176     0.07500
H2112       H  0.30644779  0.26195519  0.09183148     0.02300
H2113       H  0.30971688  0.30827603  0.10239406     0.02800
H2114       H  0.27217214  0.25025452  0.10776733     0.06300
H2115       H  0.45091792  0.44336143  0.10346544     0.05300
H2116       H  0.45796464  0.40214216  0.11341946    -0.00500
H2117       H  0.40229547  0.39632008  0.11188246     0.01000
H2118       H  0.38027425  0.25925564  0.05715627     0.04700
H2119       H  0.42662075  0.30559172  0.04779848     0.06600
H2120       H  0.36987102  0.29828506  0.04736206     0.07500
C2121       C  0.42668469  0.10506561  0.11636168    -0.22100
C2122       C  0.39155415  0.07025862  0.10837066     0.09800
C2123       C  0.34623550  0.05064574  0.11331157     0.10200
C2124       C  0.33663327  0.06981993  0.12531416    -0.17100
C2125       C  0.37154472  0.10753860  0.13248956    -0.27500
C2126       C  0.41721943  0.12394436  0.12838910     0.18600
C2127       C  0.40321725  0.05828136  0.09423907     0.12500
C2128       C  0.30814973  0.01052861  0.10567503    -0.11800
H2129       H  0.30163422  0.05738538  0.12849873     0.12800
C2130       C  0.45579400  0.16303227  0.13626145    -0.22700
H2131       H  0.46150258  0.11926104  0.11266127     0.08400
C2132       C  0.40198657  0.08004418  0.08138817     0.04800
C2133       C  0.41748530  0.07106902  0.06840574    -0.19900
C2134       C  0.43474422  0.04132275  0.06802121    -0.12200
C2135       C  0.43443434  0.01833190  0.08086876     0.13500
C2136       C  0.41934166  0.02776070  0.09383971    -0.22600
C2137       C  0.38539208  0.11360337  0.08145525    -0.05700
H2138       H  0.41698127  0.08803408  0.05855418     0.15000
C2139       C  0.44792198  0.98234297  0.08133370    -0.15900
H2140       H  0.41997904  0.01102045  0.10372986     0.09300
H2141       H  0.48937275  0.17111571  0.13180245     0.07200
H2142       H  0.45469615  0.15414842  0.14785244     0.08400
H2143       H  0.45298248  0.19399407  0.13531561     0.07500
H2144       H  0.31456603  0.98161060  0.10581973     0.02300
H2145       H  0.30589885  0.01942785  0.09430021     0.02800
H2146       H  0.27484072  0.99930042  0.11098283     0.06300
H2147       H  0.38712223  0.12786106  0.07052377     0.05300
H2148       H  0.40666181  0.14224817  0.08883503    -0.00500
H2149       H  0.34953338  0.09671307  0.08517214     0.01000
H2150       H  0.47817330  0.99395565  0.08835144     0.04700
H2151       H  0.45564473  0.97354817  0.07060108     0.06600
H2152       H  0.41947237  0.95050347  0.08592656     0.07500
C2153       C  0.30644094  0.99600431  0.25671166    -0.22100
C2154       C  0.29076348  0.97652344  0.24309974     0.09800
C2155       C  0.26709145  0.92872535  0.24175320     0.10200
C2156       C  0.25614051  0.90151758  0.25426302    -0.17100
C2157       C  0.26890168  0.92087768  0.26815567    -0.27500
C2158       C  0.29609637  0.96912734  0.26924333     0.18600
C2159       C  0.29617825  0.00723372  0.23081564     0.12500
C2160       C  0.25338564  0.90649301  0.22712724    -0.11800
H2161       H  0.23622971  0.86485306  0.25319158     0.12800
C2162       C  0.31256766  0.99331203  0.28352875    -0.22700
H2163       H  0.32517739  0.03277929  0.25760024     0.08400
C2164       C  0.26059892  0.01512531  0.22697289     0.04800
C2165       C  0.26825249  0.04787402  0.21640491    -0.19900
C2166       C  0.31129432  0.07498231  0.21006230    -0.12200
C2167       C  0.34724544  0.06765194  0.21412974     0.13500
C2168       C  0.33890016  0.03319799  0.22420528    -0.22600
C2169       C  0.21541693  0.99131204  0.23472007    -0.05700
H2170       H  0.24104184  0.05427405  0.21363788     0.15000
C2171       C  0.39526669  0.09698219  0.20874898    -0.15900
H2172       H  0.36656207  0.02810835  0.22747960     0.09300
H2173       H  0.33310468  0.03081511  0.28217499     0.07200
H2174       H  0.33450368  0.98229407  0.28892965     0.08400
H2175       H  0.28316188  0.98601671  0.29055011     0.07500
H2176       H  0.28418996  0.91777112  0.22034460     0.02300
H2177       H  0.23044692  0.91597914  0.22164697     0.02800
H2178       H  0.23544414  0.86881609  0.22796002     0.06300
H2179       H  0.19194305  0.00253269  0.23068038     0.05300
H2180       H  0.22063653  0.99901640  0.24645026    -0.00500
H2181       H  0.19869513  0.95402342  0.23318397     0.01000
H2182       H  0.41833355  0.11298429  0.21808628     0.04700
H2183       H  0.39939818  0.12467136  0.20148840     0.06600
H2184       H  0.40597206  0.07559172  0.20278991     0.07500
C2185       C  0.43287969  0.34564498  0.34120444    -0.22100
C2186       C  0.43402769  0.30872143  0.33499199     0.09800
C2187       C  0.39376374  0.27235512  0.32921293     0.10200
C2188       C  0.35332462  0.27412922  0.32953545    -0.17100
C2189       C  0.35195189  0.31125632  0.33567686    -0.27500
C2190       C  0.39255170  0.34753616  0.34162350     0.18600
C2191       C  0.47822901  0.30975189  0.33425245     0.12500
C2192       C  0.39363019  0.23179835  0.32265953    -0.11800
H2193       H  0.32264519  0.24646138  0.32488793     0.12800
C2194       C  0.39448643  0.38948382  0.34781990    -0.22700
H2195       H  0.46406189  0.37358324  0.34551446     0.08400
C2196       C  0.50751992  0.32857002  0.32225295     0.04800
C2197       C  0.54909980  0.32924028  0.32203729    -0.19900
C2198       C  0.56307895  0.31281424  0.33372194    -0.12200
C2199       C  0.53412829  0.29529683  0.34598025     0.13500
C2200       C  0.49184672  0.29334384  0.34596059    -0.22600
C2201       C  0.49510780  0.34845325  0.30974200    -0.05700
H2202       H  0.57092656  0.34263648  0.31263724     0.15000
C2203       C  0.54708557  0.27982574  0.35947145    -0.15900
H2204       H  0.46967339  0.27973961  0.35529424     0.09300
H2205       H  0.42948439  0.41529944  0.35114495     0.07200
H2206       H  0.37248377  0.38038048  0.35755034     0.08400
H2207       H  0.38315727  0.40540761  0.33960340     0.07500
H2208       H  0.40424241  0.21543202  0.33090045     0.02300
H2209       H  0.41764826  0.24263837  0.31340381     0.02800
H2210       H  0.35936732  0.20612917  0.31871501     0.06300
H2211       H  0.52216104  0.36251410  0.30134397     0.05300
H2212       H  0.49000567  0.37642718  0.31363126    -0.00500
H2213       H  0.46324255  0.32186237  0.30466652     0.01000
H2214       H  0.54631454  0.29977843  0.36884876     0.04700
H2215       H  0.58161783  0.28438552  0.35889792     0.06600
H2216       H  0.52227183  0.24331328  0.36144269     0.07500
C2217       C  0.80588951  0.33312114  0.31770012    -0.22100
C2218       C  0.82790747  0.33624247  0.33079075     0.09800
C2219       C  0.80623301  0.33471889  0.34396554     0.10200
C2220       C  0.76309803  0.33044373  0.34373847    -0.17100
C2221       C  0.74076914  0.32675740  0.33067110    -0.27500
C2222       C  0.76242113  0.32813755  0.31746476     0.18600
C2223       C  0.87276824  0.33905038  0.33049459     0.12500
C2224       C  0.82808464  0.33644679  0.35825561    -0.11800
H2225       H  0.74633580  0.32933707  0.35381502     0.12800
C2226       C  0.74083563  0.32461891  0.30298452    -0.22700
H2227       H  0.82261286  0.33418692  0.30760188     0.08400
C2228       C  0.87641309  0.30045294  0.32736679     0.04800
C2229       C  0.91930592  0.30416204  0.32763948    -0.19900
C2230       C  0.95862501  0.34527190  0.33123666    -0.12200
C2231       C  0.95500969  0.38415897  0.33419205     0.13500
C2232       C  0.91202717  0.38049988  0.33374793    -0.22600
C2233       C  0.83488366  0.25499041  0.32422775    -0.05700
H2234       H  0.92197101  0.27423895  0.32550959     0.15000
C2235       C  0.99554439  0.43011515  0.33745278    -0.15900
H2236       H  0.90904573  0.41017446  0.33601762     0.09300
H2237       H  0.73678556  0.29425734  0.29717268     0.07200
H2238       H  0.76307135  0.35542443  0.29647903     0.08400
H2239       H  0.70699805  0.32166172  0.30384542     0.07500
H2240       H  0.86058316  0.36911784  0.35928772     0.02300
H2241       H  0.83482214  0.30779459  0.35898792     0.02800
H2242       H  0.80592838  0.33371105  0.36748916     0.06300
H2243       H  0.84368901  0.22804081  0.32247060     0.05300
H2244       H  0.81783015  0.25729687  0.31433445    -0.00500
H2245       H  0.81077358  0.24451399  0.33346869     0.01000
H2246       H  0.99720962  0.45531280  0.32949124     0.04700
H2247       H  0.02823816  0.43056013  0.33682288     0.06600
H2248       H  0.99197617  0.44099680  0.34845438     0.07500
C2249       C  0.05730024  0.34891175  0.42653419    -0.22100
C2250       C  0.03946031  0.37805799  0.42574383     0.09800
C2251       C  0.03028729  0.38977776  0.41204583     0.10200
C2252       C  0.04092332  0.37375507  0.39946132    -0.17100
C2253       C  0.06166082  0.34690373  0.40008234    -0.27500
C2254       C  0.06860823  0.33320755  0.41393828     0.18600
C2255       C  0.03439600  0.39952915  0.43917513     0.12500
C2256       C  0.01063649  0.42061615  0.41070407    -0.11800
H2257       H  0.03521306  0.38451677  0.38904963     0.12800
C2258       C  0.08795300  0.30221005  0.41568024    -0.22700
H2259       H  0.06390880  0.33972241  0.43708566     0.08400
C2260       C  0.99335581  0.38039108  0.44713627     0.04800
C2261       C  0.98833793  0.40576892  0.45832712    -0.19900
C2262       C  0.02362479  0.44975239  0.46178276    -0.12200
C2263       C  0.06571441  0.46747660  0.45439653     0.13500
C2264       C  0.07049425  0.44221611  0.44322418    -0.22600
C2265       C  0.95447640  0.33389428  0.44347444    -0.05700
H2266       H  0.95598749  0.39229021  0.46386498     0.15000
C2267       C  0.10579168  0.51377197  0.45768308    -0.15900
H2268       H  0.10215950  0.45679490  0.43721397     0.09300
H2269       H  0.08710953  0.29203639  0.42713198     0.07200
H2270       H  0.12400305  0.31970816  0.41214415     0.08400
H2271       H  0.06771501  0.27073970  0.40926386     0.07500
H2272       H  0.03397996  0.45410900  0.41568550     0.02300
H2273       H  0.97721443  0.40511006  0.41627950     0.02800
H2274       H  0.00549581  0.42652372  0.39924057     0.06300
H2275       H  0.92477801  0.32389226  0.45068676     0.05300
H2276       H  0.96545409  0.30838299  0.44467498    -0.00500
H2277       H  0.94352113  0.33342864  0.43216313     0.01000
H2278       H  0.13561696  0.51033203  0.46046447     0.04700
H2279       H  0.09952256  0.53071489  0.46690521     0.06600
H2280       H  0.11420715  0.53598802  0.44802613     0.07500
C2281       C  0.35655034  0.44051896  0.41019320    -0.22100
C2282       C  0.33388447  0.41707657  0.42278149     0.09800
C2283       C  0.28729946  0.38437503  0.42223171     0.10200
C2284       C  0.26445276  0.37514971  0.40897570    -0.17100
C2285       C  0.28726270  0.39747000  0.39617452    -0.27500
C2286       C  0.33398774  0.43105308  0.39685697     0.18600
C2287       C  0.36007517  0.42755791  0.43637528     0.12500
C2288       C  0.26203102  0.35864847  0.43557646    -0.11800
H2289       H  0.22878473  0.34927169  0.40855433     0.12800
C2290       C  0.36018415  0.45773888  0.38373659    -0.22700
H2291       H  0.39232580  0.46600805  0.41081389     0.08400
C2292       C  0.38820289  0.40910782  0.43929352     0.04800
C2293       C  0.41740297  0.42498666  0.45125233    -0.19900
C2294       C  0.41909465  0.45897296  0.46025041    -0.12200
C2295       C  0.38881972  0.47530233  0.45782560     0.13500
C2296       C  0.35953643  0.45925365  0.44591138    -0.22600
C2297       C  0.38848627  0.37390370  0.42949414    -0.05700
H2298       H  0.44108460  0.41302920  0.45305986     0.15000
C2299       C  0.38824813  0.51128188  0.46717362    -0.15900
H2300       H  0.33759059  0.47304639  0.44367899     0.09300
H2301       H  0.39523654  0.48474236  0.38655480     0.07200
H2302       H  0.34270797  0.47438226  0.37870535     0.08400
H2303       H  0.36318844  0.43495795  0.37580158     0.07500
H2304       H  0.26322034  0.38280161  0.44386680     0.02300
H2305       H  0.27795757  0.33966654  0.43999479     0.02800
H2306       H  0.22579643  0.33384717  0.43324454     0.06300
H2307       H  0.41223002  0.36284348  0.43338993     0.05300
H2308       H  0.39925602  0.38808073  0.41844957    -0.00500
H2309       H  0.35385770  0.34355339  0.42901736     0.01000
H2310       H  0.39752134  0.54199099  0.46056332     0.04700
H2311       H  0.41216193  0.52151252  0.47637990     0.06600
H2312       H  0.35357100  0.49812081  0.47167228     0.07500
C2313       C  0.01908410  0.27625881  0.24405717    -0.22100
C2314       C  0.97396169  0.24055421  0.24379410     0.09800
C2315       C  0.95396660  0.21601149  0.25664886     0.10200
C2316       C  0.97922767  0.22856391  0.26956629    -0.17100
C2317       C  0.02464518  0.26428828  0.26990850    -0.27500
C2318       C  0.04476436  0.28843302  0.25687444     0.18600
C2319       C  0.94838644  0.22865335  0.22990335     0.12500
C2320       C  0.90614602  0.17603636  0.25666776    -0.11800
H2321       H  0.96359167  0.20994994  0.27942104     0.12800
C2322       C  0.09276733  0.32818503  0.25638268    -0.22700
H2323       H  0.03423143  0.29479070  0.23414668     0.08400
C2324       C  0.91815338  0.24434615  0.22652817     0.04800
C2325       C  0.88977100  0.22678362  0.21434881    -0.19900
C2326       C  0.89153303  0.19445194  0.20535356    -0.12200
C2327       C  0.92444856  0.18171860  0.20810037     0.13500
C2328       C  0.95260989  0.19906852  0.22030861    -0.22600
C2329       C  0.91505774  0.27868829  0.23599786    -0.05700
H2330       H  0.86415110  0.23606899  0.21235816     0.15000
C2331       C  0.92796960  0.14773275  0.19856327    -0.15900
H2332       H  0.97643172  0.18776414  0.22278151     0.09300
H2333       H  0.10162570  0.34458058  0.24556332     0.07200
H2334       H  0.11723179  0.31656678  0.25875141     0.08400
H2335       H  0.09677363  0.35431263  0.26436692     0.07500
H2336       H  0.90372444  0.14975544  0.24902212     0.02300
H2337       H  0.88191514  0.18704166  0.25331500     0.02800
H2338       H  0.89578880  0.16025857  0.26754402     0.06300
H2339       H  0.88986837  0.28744045  0.23181734     0.05300
H2340       H  0.94871387  0.31036493  0.23642149    -0.00500
H2341       H  0.90470036  0.26507080  0.24710938     0.01000
H2342       H  0.93530380  0.16067880  0.18729084     0.04700
H2343       H  0.89553274  0.11471624  0.19880428     0.06600
H2344       H  0.95556449  0.14162518  0.20212489     0.07500
C2345       C  0.25266769  0.22524149  0.22565942    -0.22100
C2346       C  0.28865035  0.26739499  0.23017391     0.09800
C2347       C  0.33196311  0.28452600  0.22375897     0.10200
C2348       C  0.33872557  0.25808121  0.21343230    -0.17100
C2349       C  0.30309352  0.21496399  0.20939846    -0.27500
C2350       C  0.25920921  0.19896359  0.21531143     0.18600
C2351       C  0.28090023  0.28961447  0.24283599     0.12500
C2352       C  0.37111306  0.33031671  0.22796335    -0.11800
H2353       H  0.37230790  0.27015088  0.20895449     0.12800
C2354       C  0.21873724  0.15379265  0.21121769    -0.22700
H2355       H  0.21951091  0.21195215  0.23063799     0.08400
C2356       C  0.25234029  0.30843760  0.24217208     0.04800
C2357       C  0.23961082  0.32122683  0.25503361    -0.19900
C2358       C  0.25445804  0.31537215  0.26865983    -0.12200
C2359       C  0.28594067  0.29935472  0.26909146     0.13500
C2360       C  0.29838485  0.28666959  0.25618822    -0.22600
C2361       C  0.23489147  0.31451817  0.22790349    -0.05700
H2362       H  0.21639144  0.33417941  0.25442331     0.15000
C2363       C  0.30554465  0.29335754  0.28297771    -0.15900
H2364       H  0.32028017  0.27210330  0.25657105     0.09300
H2365       H  0.19111069  0.15919294  0.20720749     0.07200
H2366       H  0.20630389  0.13129044  0.22085695     0.08400
H2367       H  0.22642950  0.13610021  0.20257341     0.07500
H2368       H  0.37908378  0.33049437  0.23958368     0.02300
H2369       H  0.36206933  0.35694247  0.22592181     0.02800
H2370       H  0.40226672  0.33904453  0.22165708     0.06300
H2371       H  0.21384988  0.33077901  0.22924455     0.05300
H2372       H  0.21359674  0.28104655  0.22263696    -0.00500
H2373       H  0.26402983  0.33648059  0.22073265     0.01000
H2374       H  0.33033415  0.28180212  0.28099744     0.04700
H2375       H  0.27809434  0.26717966  0.28986853     0.06600
H2376       H  0.32385548  0.32626971  0.28881175     0.07500
loop_ 
_geom_bond_atom_site_label_1 
_geom_bond_atom_site_label_2 
_geom_bond_distance 
_geom_bond_site_symmetry_2 
_ccdc_geom_bond_type 
O1           Mg3   2.153       .  S
O1           Mg9   2.159       .  S
O1           C36   1.235       .  S
C2           O15   1.235       .  S
C2           O39   1.270       .  A
C2           H41   1.082       .  S
Mg3          O32   2.172       .  S
Mg3          O47   2.346       .  S
Mg3          O43   2.277       .  S
Mg3          O14   2.304       .  S
O4          Mg46   2.154       .  S
O4          Mg29   2.142       .  S
O4           C25   1.235       .  S
O5           C36   1.270       .  A
O5          Mg29   2.299       .  S
C6            O8   1.277       .  A
C6           O20   1.275       .  A
C6         C2317   1.497       .  S
O7           C35   1.270       .  A
O7           Mg9   2.303       .  S
O8          Mg40   2.308       .  S
Mg9          O15   2.159       .  S
Mg9          O23   2.276       .  S
Mg9          O11   2.299       .  S
C10          O48   1.275       .  A
C10          O16   1.273       .  A
C10        C2358   1.501       .  S
O11          C18   1.275       .  A
H12          C25   1.081       .  S
C13          O27   1.235       .  S
C13          O28   1.270       .  A
C13          H38   1.081       .  S
O14          C37   1.270       .  A
O15         Mg29   2.168       .  S
O16         Mg46   2.297       .  S
C17          O30   1.274       .  A
C17          O22   1.276       .  A
C17        C2189   1.494       .  S
C18          O45   1.271       .  A
C18        C2285   1.486       .  S
Mg19         O26   2.162       .  S
Mg19         O27   2.163       .  S
Mg19         O20   2.305       .  S
Mg19         O21   2.297       .  S
Mg19         O48   2.285       .  S
O21          C25   1.269       .  A
O22         Mg29   2.314       .  S
O23          C42   1.272       .  A
O24          C44   1.276       .  A
O24         Mg40   2.300       .  S
O26         Mg40   2.166       .  S
O26          C37   1.235       .  S
O27         Mg46   2.155       .  S
O28         Mg40   2.298       .  S
Mg29         O45   2.263       .  S
O30         Mg46   2.285       .  S
H31          C36   1.080       .  S
O32         Mg40   2.175       .  S
O32          C35   1.235       .  S
H33          C35   1.082       .  S
H34          C37   1.081       .  S
O39         Mg46   2.299       .  S
C42          O47   1.281       .  A
C42        C2253   1.505       .  S
O43          C44   1.274       .  A
C44        C2230   1.479   1_455  S
C49        C2166   1.498       .  S
C49          C50   1.400       .  A
C49          C54   1.421       .  A
C50          H69   1.086       .  S
C50          C51   1.399       .  A
C51        C2349   1.489       .  S
C51          C52   1.416       .  A
C52          C53   1.422       .  A
C52          C59   1.408       .  A
C53          C54   1.426       .  A
C53          C58   1.424       .  A
C54          C55   1.407       .  A
C55          H65   1.082       .  S
C55          C56   1.397       .  A
C56          H66   1.083       .  S
C56          C57   1.405       .  A
C57          C58   1.422       .  A
C57          C64   1.414       .  A
C58          C61   1.426       .  A
C59          H67   1.083       .  S
C59          C60   1.397       .  A
C60          H68   1.083       .  S
C60          C61   1.403       .  A
C61          C62   1.417       .  A
C62        C2093   1.489       .  S
C62          C63   1.393       .  A
C63          H70   1.086       .  S
C63          C64   1.394       .  A
C64        C2125   1.482       .  S
C71        C2061   1.484       .  S
C71          C72   1.394       .  A
C71          C76   1.412       .  A
C72          H91   1.086       .  S
C72          C73   1.397       .  A
C73        C2326   1.489       .  S
C73          C74   1.421       .  A
C74          C75   1.424       .  A
C74          C81   1.407       .  A
C75          C76   1.422       .  A
C75          C80   1.422       .  A
C76          C77   1.404       .  A
C77          H87   1.083       .  S
C77          C78   1.393       .  A
C78          H88   1.082       .  S
C78          C79   1.405       .  A
C79          C80   1.423       .  A
C79          C86   1.413       .  A
C80          C83   1.423       .  A
C81          H89   1.083       .  S
C81          C82   1.402       .  A
C82          H90   1.083       .  S
C82          C83   1.407       .  A
C83          C84   1.419       .  A
C84        C1997   1.488       .  S
C84          C85   1.396       .  A
C85          H92   1.086       .  S
C85          C86   1.395       .  A
C86        C2029   1.487       .  S
O93         Mg95   2.141       .  S
O93        Mg101   2.144       .  S
O93         C128   1.234       .  S
C94         O107   1.236       .  S
C94         O131   1.271       .  A
C94         H133   1.081       .  S
Mg95        O124   2.148       .  S
Mg95        O139   2.313       .  S
Mg95        O135   2.245       .  S
Mg95        O106   2.302       .  S
O96        Mg138   2.155       .  S
O96        Mg121   2.144       .  S
O96         C117   1.235       .  S
O97         C128   1.268       .  A
O97        Mg121   2.297       .  S
C98         O100   1.273       .  A
C98         O112   1.276       .  A
C98        C1933   1.484       .  S
O99         C127   1.272       .  A
O99        Mg101   2.313       .  S
O100       Mg132   2.269       .  S
Mg101       O107   2.163       .  S
Mg101       O115   2.284       .  S
Mg101       O103   2.287       .  S
C102        O140   1.274       .  A
C102        O108   1.276       .  A
C102       C1901   1.486       .  S
O103        C110   1.273       .  A
H104        C117   1.081       .  S
C105        O119   1.235       .  S
C105        O120   1.269       .  A
C105        H130   1.081       .  S
O106        C129   1.271       .  A
O107       Mg121   2.178       .  S
O108       Mg138   2.306       .  S
C109        O122   1.273       .  A
C109        O114   1.275       .  A
C109       C1869   1.482   1_455  S
C110        O137   1.271       .  A
C110       C1965   1.485       .  S
Mg111       O118   2.155       .  S
Mg111       O119   2.166       .  S
Mg111       O112   2.310       .  S
Mg111       O113   2.294       .  S
Mg111       O140   2.274       .  S
O113        C117   1.269       .  A
O114       Mg121   2.305       .  S
O115        C134   1.273       .  A
O116        C136   1.274       .  A
O116       Mg132   2.314       .  S
O118       Mg132   2.165       .  S
O118        C129   1.236       .  S
O119       Mg138   2.151       .  S
O120       Mg132   2.294       .  S
Mg121       O137   2.267       .  S
O122       Mg138   2.278       .  S
H123        C128   1.081       .  S
O124       Mg132   2.159       .  S
O124        C127   1.236       .  S
H125        C127   1.081       .  S
H126        C129   1.081       .  S
O131       Mg138   2.303       .  S
C134        O139   1.273       .  A
C134       C2157   1.501       .  S
O135        C136   1.269       .  A
C136       C1837   1.469   1_565  S
O141       Mg143   2.165       .  S
O141       Mg149   2.156       .  S
O141        C176   1.235       .  S
C142        O155   1.235       .  S
C142        O179   1.270       .  A
C142        H181   1.081       .  S
Mg143       O172   2.159       .  S
Mg143       O187   2.298       .  S
Mg143       O183   2.283       .  S
Mg143       O154   2.299       .  S
O144       Mg186   2.170       .  S
O144       Mg169   2.166       .  S
O144        C165   1.236       .  S
O145        C176   1.270       .  A
O145       Mg169   2.303       .  S
C146        O148   1.272       .  A
C146        O160   1.274       .  A
C146       C2070   1.482       .  S
O147        C175   1.271       .  A
O147       Mg149   2.303       .  S
O148       Mg180   2.271       .  S
Mg149       O155   2.143       .  S
Mg149       O163   2.243       .  S
Mg149       O151   2.312       .  S
C150        O188   1.268       .  A
C150        O156   1.278       .  A
C150       C1805   1.473       .  S
O151        C158   1.275       .  A
H152        C165   1.081       .  S
C153        O167   1.236       .  S
C153        O168   1.272       .  A
C153        H178   1.082       .  S
O154        C177   1.269       .  A
O155       Mg169   2.151       .  S
O156       Mg186   2.337       .  S
C157        O170   1.275       .  A
C157        O162   1.275       .  A
C157       C1718   1.476       .  S
C158        O185   1.276       .  A
C158       C1773   1.493       .  S
Mg159       O166   2.142       .  S
Mg159       O167   2.152       .  S
Mg159       O160   2.310       .  S
Mg159       O161   2.304       .  S
Mg159       O188   2.238       .  S
O161        C165   1.271       .  A
O162       Mg169   2.302       .  S
O163        C182   1.269       .  A
O164        C184   1.276       .  A
O164       Mg180   2.321       .  S
O166       Mg180   2.143       .  S
O166        C177   1.234       .  S
O167       Mg186   2.168       .  S
O168       Mg180   2.313       .  S
Mg169       O185   2.306       .  S
O170       Mg186   2.285       .  S
H171        C176   1.081       .  S
O172       Mg180   2.151       .  S
O172        C175   1.236       .  S
H173        C175   1.081       .  S
H174        C177   1.082       .  S
O179       Mg186   2.300       .  S
C182        O187   1.274       .  A
C182       C1741   1.471       .  S
O183        C184   1.273       .  A
C184       C1686   1.481   1_565  S
C189       C1974   1.477       .  S
C189        C190   1.393       .  A
C189        C194   1.411       .  A
C190        H209   1.086       .  S
C190        C191   1.393       .  A
C191       C1814   1.481       .  S
C191        C192   1.413       .  A
C192        C193   1.423       .  A
C192        C199   1.403       .  A
C193        C194   1.420       .  A
C193        C198   1.419       .  A
C194        C195   1.405       .  A
C195        H205   1.083       .  S
C195        C196   1.395       .  A
C196        H206   1.083       .  S
C196        C197   1.406       .  A
C197        C198   1.423       .  A
C197        C204   1.416       .  A
C198        C201   1.420       .  A
C199        H207   1.083       .  S
C199        C200   1.395       .  A
C200        H208   1.082       .  S
C200        C201   1.408       .  A
C201        C202   1.414       .  A
C202       C1645   1.484       .  S
C202        C203   1.399       .  A
C203        H210   1.085       .  S
C203        C204   1.398       .  A
C204       C1613   1.488       .  S
O211       Mg213   2.156       .  S
O211       Mg219   2.153   1_545  S
O211        C246   1.236       .  S
C212        O225   1.234       .  S
C212        O249   1.268   1_556  A
C212        H251   1.081       .  S
Mg213       O242   2.161   1_545  S
Mg213       O257   2.306   1_545  S
Mg213       O253   2.275       .  S
Mg213       O224   2.301       .  S
O214       Mg256   2.169   1_545  S
O214       Mg239   2.154   1_554  S
O214        C235   1.236       .  S
O215        C246   1.271       .  A
O215       Mg239   2.306       .  S
C216        O218   1.271       .  A
C216        O230   1.276       .  A
C216       C2038   1.486       .  S
O217        C245   1.270       .  A
O217       Mg219   2.299       .  S
O218       Mg250   2.262       .  S
Mg219       O225   2.135       .  S
Mg219       O233   2.239       .  S
Mg219       O221   2.292   1_565  S
C220        O258   1.272       .  A
C220        O226   1.274       .  A
C220       C2134   1.480       .  S
O221        C228   1.273       .  A
H222        C235   1.081       .  S
C223        O237   1.235       .  S
C223        O238   1.270       .  A
C223        H248   1.081       .  S
O224        C247   1.269   1_556  A
O225       Mg239   2.152   1_565  S
O226       Mg256   2.305   1_545  S
C227        O240   1.273       .  A
C227        O232   1.277   1_564  A
C227       C1526   1.482       .  S
C228        O255   1.275       .  A
C228       C1549   1.486       .  S
Mg229       O236   2.155       .  S
Mg229       O237   2.151   1_545  S
Mg229       O230   2.306   1_545  S
Mg229       O231   2.301       .  S
Mg229       O258   2.268       .  S
O231        C235   1.270       .  A
O232       Mg239   2.311       .  S
O233        C252   1.268       .  A
O234        C254   1.275   1_554  A
O234       Mg250   2.316       .  S
O236       Mg250   2.158   1_545  S
O236        C247   1.235       .  S
O237       Mg256   2.157       .  S
O238       Mg250   2.305       .  S
Mg239       O255   2.294       .  S
O240       Mg256   2.272       .  S
H241        C246   1.081       .  S
O242       Mg250   2.146   1_556  S
O242        C245   1.236       .  S
H243        C245   1.081       .  S
H244        C247   1.081       .  S
O249       Mg256   2.290       .  S
C252        O257   1.274       .  A
C252       C1581   1.473       .  S
O253        C254   1.272   1_545  A
C254       C1485   1.476       .  S
O259       Mg261   2.152       .  S
O259       Mg267   2.157       .  S
O259        C294   1.234       .  S
C260        O273   1.236       .  S
C260        O297   1.271       .  A
C260        H299   1.081       .  S
Mg261       O290   2.161       .  S
Mg261       O305   2.303       .  S
Mg261       O301   2.269       .  S
Mg261       O272   2.298   1_554  S
O262       Mg304   2.155       .  S
O262       Mg287   2.156   1_556  S
O262        C283   1.235       .  S
O263        C294   1.268       .  A
O263       Mg287   2.295       .  S
C264        O266   1.275       .  A
C264        O278   1.275       .  A
C264       C1421   1.494       .  S
O265        C293   1.271       .  A
O265       Mg267   2.309       .  S
O266       Mg298   2.286       .  S
Mg267       O273   2.149       .  S
Mg267       O281   2.268       .  S
Mg267       O269   2.331       .  S
C268        O306   1.274       .  A
C268        O274   1.274       .  A
C268       C1453   1.501       .  S
O269        C276   1.279       .  A
H270        C283   1.081       .  S
C271        O285   1.234       .  S
C271        O286   1.268       .  A
C271        H296   1.081       .  S
O272        C295   1.270       .  A
O273       Mg287   2.162       .  S
O274       Mg304   2.306       .  S
C275        O288   1.272   1_554  A
C275        O280   1.274       .  A
C275       C1357   1.482       .  S
C276        O303   1.272       .  A
C276       C2102   1.503       .  S
Mg277       O284   2.153       .  S
Mg277       O285   2.156       .  S
Mg277       O278   2.303       .  S
Mg277       O279   2.302       .  S
Mg277       O306   2.282       .  S
O279        C283   1.270       .  A
O280       Mg287   2.296       .  S
O281        C300   1.272       .  A
O282        C302   1.275       .  A
O282       Mg298   2.306       .  S
O284       Mg298   2.169       .  S
O284        C295   1.236       .  S
O285       Mg304   2.146       .  S
O286       Mg298   2.296       .  S
Mg287       O303   2.274       .  S
O288       Mg304   2.266       .  S
H289        C294   1.081       .  S
O290       Mg298   2.163   1_554  S
O290        C293   1.236       .  S
H291        C293   1.081       .  S
H292        C295   1.081       .  S
O297       Mg304   2.301   1_554  S
C300        O305   1.276       .  A
C300       C1654   1.490       .  S
O301        C302   1.272   1_554  A
C302       C1389   1.481       .  S
O307       Mg309   2.155       .  S
O307       Mg315   2.162   1_455  S
O307        C342   1.234       .  S
C308        O321   1.236       .  S
C308        O345   1.271       .  A
C308        H347   1.082       .  S
Mg309       O338   2.163   1_455  S
Mg309       O353   2.304       .  S
Mg309       O349   2.271       .  S
Mg309       O320   2.296   1_556  S
O310       Mg352   2.162   1_455  S
O310       Mg335   2.159   1_554  S
O310        C331   1.236       .  S
O311        C342   1.268       .  A
O311       Mg335   2.296       .  S
C312        O314   1.276       .  A
C312        O326   1.275       .  A
C312       C2006   1.499       .  S
O313        C341   1.272       .  A
O313       Mg315   2.309       .  S
O314       Mg346   2.293       .  S
Mg315       O321   2.158       .  S
Mg315       O329   2.282       .  S
Mg315       O317   2.338   1_655  S
C316        O354   1.272   1_655  A
C316        O322   1.277       .  A
C316       C1622   1.497       .  S
O317        C324   1.280       .  A
H318        C331   1.082       .  S
C319        O333   1.235       .  S
C319        O334   1.269       .  A
C319        H344   1.081       .  S
O320        C343   1.269       .  A
O321       Mg335   2.168   1_655  S
O322       Mg352   2.314       .  S
C323        O336   1.271   1_556  A
C323        O328   1.276   1_655  A
C323       C1270   1.481       .  S
C324        O351   1.274       .  A
C324       C1293   1.503       .  S
Mg325       O332   2.149       .  S
Mg325       O333   2.156   1_455  S
Mg325       O326   2.311   1_455  S
Mg325       O327   2.302       .  S
Mg325       O354   2.279       .  S
O327        C331   1.271       .  A
O328       Mg335   2.312       .  S
O329        C348   1.274   1_655  A
O330        C350   1.276   1_655  A
O330       Mg346   2.312       .  S
O332       Mg346   2.165   1_455  S
O332        C343   1.235       .  S
O333       Mg352   2.145       .  S
O334       Mg346   2.295       .  S
Mg335       O351   2.281       .  S
O336       Mg352   2.265       .  S
H337        C342   1.081       .  S
O338       Mg346   2.166   1_556  S
O338        C341   1.236       .  S
H339        C341   1.082       .  S
H340        C343   1.081       .  S
O345       Mg352   2.300   1_556  S
C348        O353   1.276       .  A
C348       C1325   1.490       .  S
O349        C350   1.272   1_556  A
C350       C1238   1.477       .  S
O355       Mg357   2.165       .  S
O355       Mg363   2.159       .  S
O355        C390   1.236       .  S
C356        O369   1.234       .  S
C356        O393   1.269       .  A
C356        H395   1.081       .  S
Mg357       O386   2.160       .  S
Mg357       O401   2.323       .  S
Mg357       O397   2.281       .  S
Mg357       O368   2.304       .  S
O358       Mg400   2.165       .  S
O358       Mg383   2.162       .  S
O358        C379   1.236       .  S
O359        C390   1.271       .  A
O359       Mg383   2.305       .  S
C360        O362   1.273       .  A
C360        O374   1.273       .  A
C360       C1197   1.484       .  S
O361        C389   1.270       .  A
O361       Mg363   2.300       .  S
O362       Mg394   2.287       .  S
Mg363       O369   2.145       .  S
Mg363       O377   2.243       .  S
Mg363       O365   2.307       .  S
C364        O402   1.268       .  A
C364        O370   1.275       .  A
C364       C1165   1.473       .  S
O365        C372   1.274       .  A
H366        C379   1.081       .  S
C367        O381   1.236       .  S
C367        O382   1.272       .  A
C367        H392   1.081       .  S
O368        C391   1.270       .  A
O369       Mg383   2.151       .  S
O370       Mg400   2.316       .  S
C371        O384   1.274       .  A
C371        O376   1.275       .  A
C371       C1069   1.478   1_545  S
C372        O399   1.274       .  A
C372       C1101   1.484       .  S
Mg373       O380   2.148       .  S
Mg373       O381   2.154       .  S
Mg373       O374   2.308       .  S
Mg373       O375   2.305       .  S
Mg373       O402   2.243       .  S
O375        C379   1.271       .  A
O376       Mg383   2.314       .  S
O377        C396   1.270       .  A
O378        C398   1.276       .  A
O378       Mg394   2.316       .  S
O380       Mg394   2.143       .  S
O380        C391   1.235       .  S
O381       Mg400   2.171       .  S
O382       Mg394   2.314       .  S
Mg383       O399   2.290       .  S
O384       Mg400   2.283       .  S
H385        C390   1.082       .  S
O386       Mg394   2.158       .  S
O386        C389   1.236       .  S
H387        C389   1.081       .  S
H388        C391   1.081       .  S
O393       Mg400   2.298       .  S
C396        O401   1.276       .  A
C396       C1133   1.480       .  S
O397        C398   1.274       .  A
C398       C1037   1.479       .  S
C403       C1462   1.487       .  S
C403        C404   1.399       .  A
C403        C408   1.415       .  A
C404        H423   1.085       .  S
C404        C405   1.399       .  A
C405       C1334   1.485       .  S
C405        C406   1.415       .  A
C406        C407   1.422       .  A
C406        C413   1.407       .  A
C407        C408   1.422       .  A
C407        C412   1.420       .  A
C408        C409   1.407       .  A
C409        H419   1.083       .  S
C409        C410   1.396       .  A
C410        H420   1.083       .  S
C410        C411   1.404       .  A
C411        C412   1.423       .  A
C411        C418   1.413       .  A
C412        C415   1.423       .  A
C413        H421   1.083       .  S
C413        C414   1.396       .  A
C414        H422   1.083       .  S
C414        C415   1.404       .  A
C415        C416   1.413       .  A
C416       C1005   1.480       .  S
C416        C417   1.391       .  A
C417        H424   1.087       .  S
C417        C418   1.391       .  A
C418       C1142   1.480       .  S
C425       C1558   1.492       .  S
C425        C426   1.399       .  A
C425        C430   1.417       .  A
C426        H445   1.086       .  S
C426        C427   1.398       .  A
C427       C1302   1.494       .  S
C427        C428   1.421       .  A
C428        C429   1.425       .  A
C428        C435   1.407       .  A
C429        C430   1.424       .  A
C429        C434   1.425       .  A
C430        C431   1.407       .  A
C431        H441   1.082       .  S
C431        C432   1.395       .  A
C432        H442   1.083       .  S
C432        C433   1.404       .  A
C433        C434   1.425       .  A
C433        C440   1.417       .  A
C434        C437   1.425       .  A
C435        H443   1.083       .  S
C435        C436   1.402       .  A
C436        H444   1.083       .  S
C436        C437   1.406       .  A
C437        C438   1.420       .  A
C438        C973   1.491       .  S
C438        C439   1.396       .  A
C439        H446   1.086       .  S
C439        C440   1.396       .  A
C440       C1110   1.491       .  S
O447       Mg449   2.153       .  S
O447       Mg455   2.163       .  S
O447        C482   1.235       .  S
C448        O461   1.236       .  S
C448        O485   1.270       .  A
C448        H487   1.081       .  S
Mg449       O478   2.168       .  S
Mg449       O493   2.310       .  S
Mg449       O489   2.272       .  S
Mg449       O460   2.294       .  S
O450       Mg492   2.159       .  S
O450       Mg475   2.147       .  S
O450        C471   1.235       .  S
O451        C482   1.269       .  A
O451       Mg475   2.299       .  S
C452        O454   1.274       .  A
C452        O466   1.274       .  A
C452       C1014   1.480       .  S
O453        C481   1.269       .  A
O453       Mg455   2.297       .  S
O454       Mg486   2.285       .  S
Mg455       O461   2.163       .  S
Mg455       O469   2.280       .  S
Mg455       O457   2.300       .  S
C456        O494   1.274       .  A
C456        O462   1.274       .  A
C456        C877   1.501       .  S
O457        C464   1.275       .  A
H458        C471   1.081       .  S
C459        O473   1.235       .  S
C459        O474   1.269       .  A
C459        H484   1.081       .  S
O460        C483   1.268       .  A
O461       Mg475   2.166       .  S
O462       Mg492   2.311       .  S
C463        O476   1.272       .  A
C463        O468   1.276       .  A
C463        C822   1.481   1_545  S
C464        O491   1.272       .  A
C464        C918   1.490       .  S
Mg465       O472   2.153       .  S
Mg465       O473   2.162       .  S
Mg465       O466   2.287       .  S
Mg465       O467   2.296       .  S
Mg465       O494   2.276       .  S
O467        C471   1.269       .  A
O468       Mg475   2.313       .  S
O469        C488   1.273       .  A
O470        C490   1.277       .  A
O470       Mg486   2.314       .  S
O472       Mg486   2.171       .  S
O472        C483   1.235       .  S
O473       Mg492   2.148       .  S
O474       Mg486   2.296       .  S
Mg475       O491   2.269       .  S
O476       Mg492   2.268       .  S
H477        C482   1.081       .  S
O478       Mg486   2.153       .  S
O478        C481   1.235       .  S
H479        C481   1.081       .  S
H480        C483   1.081       .  S
O485       Mg492   2.303       .  S
C488        O493   1.276       .  A
C488        C941   1.492       .  S
O489        C490   1.273       .  A
C490        C845   1.477   1_655  S
O495       Mg497   2.158       .  S
O495       Mg503   2.159       .  S
O495        C530   1.235       .  S
C496        O509   1.235       .  S
C496        O533   1.270       .  A
C496        H535   1.081       .  S
Mg497       O526   2.157       .  S
Mg497       O541   2.290       .  S
Mg497       O537   2.275       .  S
Mg497       O508   2.295       .  S
O498       Mg540   2.172       .  S
O498       Mg523   2.182       .  S
O498        C519   1.237       .  S
O499        C530   1.269       .  A
O499       Mg523   2.301       .  S
C500        O502   1.275       .  A
C500        O514   1.274       .  A
C500        C749   1.497       .  S
O501        C529   1.270       .  A
O501       Mg503   2.300       .  S
O502       Mg534   2.288       .  S
Mg503       O509   2.156       .  S
Mg503       O517   2.280       .  S
Mg503       O505   2.322       .  S
C504        O542   1.270       .  A
C504        O510   1.279       .  A
C504        C781   1.495       .  S
O505        C512   1.276       .  A
H506        C519   1.081       .  S
C507        O521   1.235       .  S
C507        O522   1.270       .  A
C507        H532   1.081       .  S
O508        C531   1.270       .  A
O509       Mg523   2.160       .  S
O510       Mg540   2.336       .  S
C511        O524   1.274   1_455  A
C511        O516   1.276   1_455  A
C511        C653   1.482       .  S
C512        O539   1.277       .  A
C512        C982   1.508       .  S
Mg513       O520   2.145       .  S
Mg513       O521   2.154       .  S
Mg513       O514   2.305       .  S
Mg513       O515   2.312       .  S
Mg513       O542   2.262       .  S
O515        C519   1.272       .  A
O516       Mg523   2.308       .  S
O517        C536   1.274       .  A
O518        C538   1.277       .  A
O518       Mg534   2.315       .  S
O520       Mg534   2.165       .  S
O520        C531   1.236       .  S
O521       Mg540   2.159       .  S
O522       Mg534   2.302       .  S
Mg523       O539   2.306       .  S
O524       Mg540   2.277       .  S
H525        C530   1.081       .  S
O526       Mg534   2.150       .  S
O526        C529   1.235       .  S
H527        C529   1.081       .  S
H528        C531   1.081       .  S
O533       Mg540   2.303       .  S
C536        O541   1.273       .  A
C536        C726   1.489       .  S
O537        C538   1.273       .  A
C538        C685   1.487       .  S
C543       C1590   1.475       .  S
C543        C544   1.392       .  A
C543        C548   1.410       .  A
C544        H563   1.087       .  S
C544        C545   1.391       .  A
C545       C1430   1.483       .  S
C545        C546   1.415       .  A
C546        C547   1.425       .  A
C546        C553   1.403       .  A
C547        C548   1.420       .  A
C547        C552   1.419       .  A
C548        C549   1.405       .  A
C549        H559   1.083       .  S
C549        C550   1.395       .  A
C550        H560   1.083       .  S
C550        C551   1.405       .  A
C551        C552   1.424       .  A
C551        C558   1.415       .  A
C552        C555   1.420       .  A
C553        H561   1.083       .  S
C553        C554   1.396       .  A
C554        H562   1.082       .  S
C554        C555   1.407       .  A
C555        C556   1.413       .  A
C556        C717   1.482       .  S
C556        C557   1.398       .  A
C557        H564   1.086       .  S
C557        C558   1.396       .  A
C558        C886   1.487       .  S
C565       C2262   1.495       .  S
C565        C566   1.398       .  A
C565        C570   1.420       .  A
C566        H585   1.086       .  S
C566        C567   1.397       .  A
C567       C1910   1.483       .  S
C567        C568   1.414       .  A
C568        C569   1.420       .  A
C568        C575   1.407   1_455  A
C569        C570   1.426       .  A
C569        C574   1.424       .  A
C570        C571   1.405       .  A
C571        H581   1.083       .  S
C571        C572   1.398       .  A
C572        H582   1.083       .  S
C572        C573   1.407       .  A
C573        C574   1.420       .  A
C573        C580   1.416       .  A
C574        C577   1.425   1_455  A
C575        H583   1.083       .  S
C575        C576   1.396       .  A
C576        H584   1.082       .  S
C576        C577   1.405       .  A
C577        C578   1.418       .  A
C578        C790   1.491       .  S
C578        C579   1.397       .  A
C579        H586   1.086       .  S
C579        C580   1.398   1_655  A
C580        C950   1.485   1_455  S
C587       C2294   1.480       .  S
C587        C588   1.393       .  A
C587        C592   1.412       .  A
C588        H607   1.086       .  S
C588        C589   1.397       .  A
C589       C1782   1.494       .  S
C589        C590   1.422       .  A
C590        C591   1.427       .  A
C590        C597   1.405       .  A
C591        C592   1.421       .  A
C591        C596   1.423       .  A
C592        C593   1.406       .  A
C593        H603   1.083       .  S
C593        C594   1.395       .  A
C594        H604   1.083       .  S
C594        C595   1.404       .  A
C595        C596   1.426       .  A
C595        C602   1.416       .  A
C596        C599   1.422       .  A
C597        H605   1.083       .  S
C597        C598   1.401       .  A
C598        H606   1.083       .  S
C598        C599   1.407       .  A
C599        C600   1.418       .  A
C600        C758   1.486       .  S
C600        C601   1.396       .  A
C601        H608   1.086       .  S
C601        C602   1.395       .  A
C602       C1206   1.489       .  S
C609       C1750   1.476       .  S
C609        C610   1.393       .  A
C609        C614   1.410   1_565  A
C610        H629   1.086       .  S
C610        C611   1.392       .  A
C611       C1942   1.481       .  S
C611        C612   1.413   1_565  A
C612        C613   1.423       .  A
C612        C619   1.404       .  A
C613        C614   1.421       .  A
C613        C618   1.418       .  A
C614        C615   1.405       .  A
C615        H625   1.083       .  S
C615        C616   1.395       .  A
C616        H626   1.083       .  S
C616        C617   1.405       .  A
C617        C618   1.423       .  A
C617        C624   1.413       .  A
C618        C621   1.421       .  A
C619        H627   1.083       .  S
C619        C620   1.395       .  A
C620        H628   1.083       .  S
C620        C621   1.406       .  A
C621        C622   1.412       .  A
C622       C1174   1.481       .  S
C622        C623   1.395       .  A
C623        H630   1.086       .  S
C623        C624   1.394       .  A
C624        C909   1.482       .  S
C631       C1229   1.496       .  S
C631        C632   1.423       .  A
C631        C636   1.418   1_445  A
C632       C1366   1.496   1_556  S
C632        C633   1.422   1_546  A
C633       C1517   1.497       .  S
C633        C634   1.417   1_454  A
C634       C1261   1.491       .  S
C634        C635   1.414       .  A
C635       C1398   1.490       .  S
C635        C636   1.415       .  A
C636       C1494   1.495       .  S
C637       C1709   1.491       .  S
C637        C638   1.415       .  A
C637        C642   1.421       .  A
C638       C1878   1.493       .  S
C638        C639   1.413       .  A
C639       C2221   1.489       .  S
C639        C640   1.415       .  A
C640       C1677   1.502       .  S
C640        C641   1.423       .  A
C641       C1846   1.492       .  S
C641        C642   1.426       .  A
C642       C2198   1.506       .  S
C643       C1078   1.494       .  S
C643        C644   1.418       .  A
C643        C648   1.413       .  A
C644        C662   1.496       .  S
C644        C645   1.423       .  A
C645        C854   1.497       .  S
C645        C646   1.424       .  A
C646       C1046   1.497       .  S
C646        C647   1.418       .  A
C647        C694   1.494       .  S
C647        C648   1.415       .  A
C648        C813   1.490       .  S
C649        H659   1.084       .  S
C649        C650   1.399       .  A
C649        C654   1.404       .  A
C650        C655   1.483       .  S
C650        C651   1.411       .  A
C651        C652   1.406       .  A
C651        C656   1.506       .  S
C652        H657   1.084       .  S
C652        C653   1.405       .  A
C653        C654   1.421       .  A
C654        C658   1.510       .  S
C655        C660   1.410       .  A
C655        C664   1.401       .  A
C656        H672   1.110       .  S
C656        H673   1.110       .  S
C656        H674   1.111       .  S
C658        H669   1.111       .  S
C658        H670   1.110       .  S
C658        H671   1.106       .  S
C660        C661   1.402       .  A
C660        C665   1.506       .  S
C661        H666   1.083       .  S
C661        C662   1.404       .  A
C662        C663   1.417       .  A
C663        C664   1.405       .  A
C663        C667   1.504       .  S
C664        H668   1.084       .  S
C665        H675   1.111       .  S
C665        H676   1.110       .  S
C665        H677   1.110       .  S
C667        H678   1.110       .  S
C667        H679   1.106       .  S
C667        H680   1.110       .  S
C681        H691   1.085       .  S
C681        C682   1.404       .  A
C681        C686   1.406       .  A
C682        C687   1.489       .  S
C682        C683   1.412       .  A
C683        C684   1.405       .  A
C683        C688   1.508       .  S
C684        H689   1.084       .  S
C684        C685   1.407       .  A
C685        C686   1.418       .  A
C686        C690   1.507       .  S
C687        C692   1.413       .  A
C687        C696   1.403       .  A
C688        H704   1.109       .  S
C688        H705   1.111       .  S
C688        H706   1.111       .  S
C690        H701   1.111       .  S
C690        H702   1.110       .  S
C690        H703   1.107       .  S
C692        C693   1.404       .  A
C692        C697   1.506       .  S
C693        H698   1.083       .  S
C693        C694   1.402       .  A
C694        C695   1.415       .  A
C695        C696   1.404       .  A
C695        C699   1.506       .  S
C696        H700   1.084       .  S
C697        H707   1.111       .  S
C697        H708   1.109       .  S
C697        H709   1.110       .  S
C699        H710   1.110       .  S
C699        H711   1.108       .  S
C699        H712   1.110       .  S
C713        H723   1.084       .  S
C713        C714   1.403       .  A
C713        C718   1.406       .  A
C714        C719   1.480       .  S
C714        C715   1.412       .  A
C715        C716   1.400       .  A
C715        C720   1.509       .  S
C716        H721   1.085       .  S
C716        C717   1.402       .  A
C717        C718   1.414       .  A
C718        C722   1.506       .  S
C719        C724   1.409       .  A
C719        C728   1.398       .  A
C720        H736   1.110       .  S
C720        H737   1.108       .  S
C720        H738   1.111       .  S
C722        H733   1.110       .  S
C722        H734   1.110       .  S
C722        H735   1.108       .  S
C724        C725   1.407       .  A
C724        C729   1.506       .  S
C725        H730   1.084       .  S
C725        C726   1.408       .  A
C726        C727   1.424       .  A
C727        C728   1.401       .  A
C727        C731   1.511       .  S
C728        H732   1.085       .  S
C729        H739   1.111       .  S
C729        H740   1.110       .  S
C729        H741   1.109       .  S
C731        H742   1.110       .  S
C731        H743   1.110       .  S
C731        H744   1.111       .  S
C745        H755   1.084       .  S
C745        C746   1.398       .  A
C745        C750   1.407       .  A
C746        C751   1.486       .  S
C746        C747   1.411       .  A
C747        C748   1.407       .  A
C747        C752   1.507       .  S
C748        H753   1.084       .  S
C748        C749   1.408       .  A
C749        C750   1.425       .  A
C750        C754   1.509       .  S
C751        C756   1.413       .  A
C751        C760   1.400       .  A
C752        H768   1.110       .  S
C752        H769   1.110       .  S
C752        H770   1.111       .  S
C754        H765   1.110       .  S
C754        H766   1.111       .  S
C754        H767   1.110       .  S
C756        C757   1.407       .  A
C756        C761   1.506       .  S
C757        H762   1.084       .  S
C757        C758   1.403       .  A
C758        C759   1.417       .  A
C759        C760   1.404       .  A
C759        C763   1.507       .  S
C760        H764   1.084       .  S
C761        H771   1.111       .  S
C761        H772   1.110       .  S
C761        H773   1.110       .  S
C763        H774   1.110       .  S
C763        H775   1.109       .  S
C763        H776   1.110       .  S
C777        H787   1.084       .  S
C777        C778   1.403       .  A
C777        C782   1.410       .  A
C778        C783   1.493       .  S
C778        C779   1.412       .  A
C779        C780   1.405       .  A
C779        C784   1.508       .  S
C780        H785   1.084       .  S
C780        C781   1.407       .  A
C781        C782   1.422       .  A
C782        C786   1.507       .  S
C783        C788   1.414       .  A
C783        C792   1.404   1_655  A
C784        H800   1.110   1_655  S
C784        H801   1.111       .  S
C784        H802   1.111       .  S
C786        H797   1.110       .  S
C786        H798   1.111       .  S
C786        H799   1.107       .  S
C788        C789   1.408       .  A
C788        C793   1.506       .  S
C789        H794   1.084       .  S
C789        C790   1.404       .  A
C790        C791   1.415   1_655  A
C791        C792   1.407       .  A
C791        C795   1.506       .  S
C792        H796   1.084       .  S
C793        H803   1.111       .  S
C793        H804   1.110       .  S
C793        H805   1.110       .  S
C795        H806   1.110       .  S
C795        H807   1.109       .  S
C795        H808   1.110       .  S
C809        H819   1.084       .  S
C809        C810   1.402       .  A
C809        C814   1.403       .  A
C810        C815   1.484       .  S
C810        C811   1.412       .  A
C811        C812   1.404       .  A
C811        C816   1.507       .  S
C812        H817   1.083       .  S
C812        C813   1.403       .  A
C813        C814   1.415       .  A
C814        C818   1.506       .  S
C815        C820   1.411       .  A
C815        C824   1.404       .  A
C816        H832   1.110       .  S
C816        H833   1.107       .  S
C816        H834   1.111       .  S
C818        H829   1.110       .  S
C818        H830   1.111       .  S
C818        H831   1.107       .  S
C820        C821   1.403       .  A
C820        C825   1.509       .  S
C821        H826   1.084       .  S
C821        C822   1.405       .  A
C822        C823   1.416       .  A
C823        C824   1.408       .  A
C823        C827   1.506       .  S
C824        H828   1.085       .  S
C825        H835   1.111       .  S
C825        H836   1.110       .  S
C825        H837   1.107       .  S
C827        H838   1.111       .  S
C827        H839   1.108       .  S
C827        H840   1.110       .  S
C841        H851   1.083       .  S
C841        C842   1.406       .  A
C841        C846   1.408       .  A
C842        C847   1.488       .  S
C842        C843   1.411       .  A
C843        C844   1.402       .  A
C843        C848   1.507       .  S
C844        H849   1.084       .  S
C844        C845   1.403       .  A
C845        C846   1.414       .  A
C846        C850   1.506   1_455  S
C847        C852   1.411       .  A
C847        C856   1.403       .  A
C848        H864   1.109       .  S
C848        H865   1.111       .  S
C848        H866   1.111       .  S
C850        H861   1.110       .  S
C850        H862   1.110   1_655  S
C850        H863   1.108       .  S
C852        C853   1.404       .  A
C852        C857   1.506       .  S
C853        H858   1.084       .  S
C853        C854   1.406       .  A
C854        C855   1.417       .  A
C855        C856   1.405       .  A
C855        C859   1.506       .  S
C856        H860   1.084       .  S
C857        H867   1.111       .  S
C857        H868   1.109       .  S
C857        H869   1.110       .  S
C859        H870   1.110       .  S
C859        H871   1.107       .  S
C859        H872   1.110       .  S
C873        H883   1.084       .  S
C873        C874   1.401   1_565  A
C873        C878   1.406   1_565  A
C874        C879   1.490   1_545  S
C874        C875   1.410       .  A
C875        C876   1.407       .  A
C875        C880   1.507       .  S
C876        H881   1.083       .  S
C876        C877   1.411       .  A
C877        C878   1.425       .  A
C878        C882   1.510   1_545  S
C879        C884   1.414       .  A
C879        C888   1.403       .  A
C880        H896   1.109       .  S
C880        H897   1.110       .  S
C880        H898   1.111       .  S
C882        H893   1.110       .  S
C882        H894   1.111       .  S
C882        H895   1.110       .  S
C884        C885   1.409       .  A
C884        C889   1.506       .  S
C885        H890   1.084       .  S
C885        C886   1.404       .  A
C886        C887   1.414       .  A
C887        C888   1.402       .  A
C887        C891   1.508       .  S
C888        H892   1.084   1_565  S
C889        H899   1.111       .  S
C889        H900   1.109       .  S
C889        H901   1.110       .  S
C891        H902   1.110       .  S
C891        H903   1.109       .  S
C891        H904   1.110       .  S
C905        H915   1.084       .  S
C905        C906   1.401       .  A
C905        C910   1.401       .  A
C906        C911   1.483       .  S
C906        C907   1.413       .  A
C907        C908   1.405       .  A
C907        C912   1.506   1_545  S
C908        H913   1.084   1_545  S
C908        C909   1.403       .  A
C909        C910   1.414       .  A
C910        C914   1.507       .  S
C911        C916   1.408       .  A
C911        C920   1.402       .  A
C912        H928   1.109       .  S
C912        H929   1.110   1_565  S
C912        H930   1.111       .  S
C914        H925   1.110       .  S
C914        H926   1.110       .  S
C914        H927   1.109       .  S
C916        C917   1.404       .  A
C916        C921   1.506       .  S
C917        H922   1.084       .  S
C917        C918   1.410       .  A
C918        C919   1.419       .  A
C919        C920   1.404       .  A
C919        C923   1.508       .  S
C920        H924   1.084       .  S
C921        H931   1.111       .  S
C921        H932   1.110       .  S
C921        H933   1.110       .  S
C923        H934   1.111       .  S
C923        H935   1.110       .  S
C923        H936   1.109       .  S
C937        H947   1.084       .  S
C937        C938   1.402       .  A
C937        C942   1.410       .  A
C938        C943   1.486       .  S
C938        C939   1.411       .  A
C939        C940   1.403       .  A
C939        C944   1.509       .  S
C940        H945   1.084       .  S
C940        C941   1.408       .  A
C941        C942   1.419       .  A
C942        C946   1.506       .  S
C943        C948   1.412   1_655  A
C943        C952   1.401       .  A
C944        H960   1.110       .  S
C944        H961   1.109   1_655  S
C944        H962   1.111       .  S
C946        H957   1.111       .  S
C946        H958   1.109       .  S
C946        H959   1.110       .  S
C948        C949   1.409       .  A
C948        C953   1.505       .  S
C949        H954   1.084       .  S
C949        C950   1.405   1_455  A
C950        C951   1.415       .  A
C951        C952   1.401       .  A
C951        C955   1.508       .  S
C952        H956   1.085       .  S
C953        H963   1.111       .  S
C953        H964   1.110       .  S
C953        H965   1.109       .  S
C955        H966   1.110       .  S
C955        H967   1.108       .  S
C955        H968   1.110       .  S
C969        H979   1.084       .  S
C969        C970   1.407       .  A
C969        C974   1.410       .  A
C970        C975   1.499       .  S
C970        C971   1.415       .  A
C971        C972   1.408       .  A
C971        C976   1.506       .  S
C972        H977   1.084       .  S
C972        C973   1.404       .  A
C973        C974   1.413       .  A
C974        C978   1.505       .  S
C975        C980   1.414       .  A
C975        C984   1.401   1_455  A
C976        H992   1.109   1_455  S
C976        H993   1.110       .  S
C976        H994   1.111       .  S
C978        H989   1.111       .  S
C978        H990   1.110       .  S
C978        H991   1.110       .  S
C980        C981   1.410       .  A
C980        C985   1.507       .  S
C981        H986   1.083       .  S
C981        C982   1.409   1_455  A
C982        C983   1.428       .  A
C983        C984   1.411       .  A
C983        C987   1.509       .  S
C984        H988   1.084       .  S
C985        H995   1.111       .  S
C985        H996   1.109       .  S
C985        H997   1.111       .  S
C987        H998   1.110       .  S
C987        H999   1.110       .  S
C987       H1000   1.111       .  S
C1001      H1011   1.084       .  S
C1001      C1002   1.401       .  A
C1001      C1006   1.402       .  A
C1002      C1007   1.481       .  S
C1002      C1003   1.412       .  A
C1003      C1004   1.404       .  A
C1003      C1008   1.506   1_455  S
C1004      H1009   1.084       .  S
C1004      C1005   1.403       .  A
C1005      C1006   1.414       .  A
C1006      C1010   1.506       .  S
C1007      C1012   1.408   1_455  A
C1007      C1016   1.405       .  A
C1008      H1024   1.110       .  S
C1008      H1025   1.109       .  S
C1008      H1026   1.111       .  S
C1010      H1021   1.110       .  S
C1010      H1022   1.110       .  S
C1010      H1023   1.109       .  S
C1012      C1013   1.403       .  A
C1012      C1017   1.507       .  S
C1013      H1018   1.084       .  S
C1013      C1014   1.407       .  A
C1014      C1015   1.413   1_655  A
C1015      C1016   1.407       .  A
C1015      C1019   1.506       .  S
C1016      H1020   1.084       .  S
C1017      H1027   1.111       .  S
C1017      H1028   1.110       .  S
C1017      H1029   1.109       .  S
C1019      H1030   1.109       .  S
C1019      H1031   1.110       .  S
C1019      H1032   1.111       .  S
C1033      H1043   1.085       .  S
C1033      C1034   1.404       .  A
C1033      C1038   1.408       .  A
C1034      C1039   1.486       .  S
C1034      C1035   1.411       .  A
C1035      C1036   1.403       .  A
C1035      C1040   1.506       .  S
C1036      H1041   1.085       .  S
C1036      C1037   1.404       .  A
C1037      C1038   1.416       .  A
C1038      C1042   1.506       .  S
C1039      C1044   1.410       .  A
C1039      C1048   1.403       .  A
C1040      H1056   1.109       .  S
C1040      H1057   1.109       .  S
C1040      H1058   1.111       .  S
C1042      H1053   1.111       .  S
C1042      H1054   1.110       .  S
C1042      H1055   1.108       .  S
C1044      C1045   1.402       .  A
C1044      C1049   1.507       .  S
C1045      H1050   1.083       .  S
C1045      C1046   1.405       .  A
C1046      C1047   1.418       .  A
C1047      C1048   1.407       .  A
C1047      C1051   1.506       .  S
C1048      H1052   1.084       .  S
C1049      H1059   1.111       .  S
C1049      H1060   1.110       .  S
C1049      H1061   1.109       .  S
C1051      H1062   1.110       .  S
C1051      H1063   1.107       .  S
C1051      H1064   1.110       .  S
C1065      H1075   1.085       .  S
C1065      C1066   1.401       .  A
C1065      C1070   1.403       .  A
C1066      C1071   1.489       .  S
C1066      C1067   1.415       .  A
C1067      C1068   1.409       .  A
C1067      C1072   1.507       .  S
C1068      H1073   1.084       .  S
C1068      C1069   1.403       .  A
C1069      C1070   1.417       .  A
C1070      C1074   1.509   1_565  S
C1071      C1076   1.413       .  A
C1071      C1080   1.403       .  A
C1072      H1088   1.109       .  S
C1072      H1089   1.111       .  S
C1072      H1090   1.111       .  S
C1074      H1085   1.111       .  S
C1074      H1086   1.110       .  S
C1074      H1087   1.108       .  S
C1076      C1077   1.405       .  A
C1076      C1081   1.506       .  S
C1077      H1082   1.084       .  S
C1077      C1078   1.403       .  A
C1078      C1079   1.415       .  A
C1079      C1080   1.405       .  A
C1079      C1083   1.504       .  S
C1080      H1084   1.084       .  S
C1081      H1091   1.111       .  S
C1081      H1092   1.109       .  S
C1081      H1093   1.110       .  S
C1083      H1094   1.110       .  S
C1083      H1095   1.106       .  S
C1083      H1096   1.110       .  S
C1097      H1107   1.085       .  S
C1097      C1098   1.401   1_565  A
C1097      C1102   1.404   1_565  A
C1098      C1103   1.489       .  S
C1098      C1099   1.411       .  A
C1099      C1100   1.410       .  A
C1099      C1104   1.505       .  S
C1100      H1105   1.083       .  S
C1100      C1101   1.407       .  A
C1101      C1102   1.420       .  A
C1102      C1106   1.510   1_545  S
C1103      C1108   1.413       .  A
C1103      C1112   1.404   1_545  A
C1104      H1120   1.110       .  S
C1104      H1121   1.109       .  S
C1104      H1122   1.111       .  S
C1106      H1117   1.111       .  S
C1106      H1118   1.110       .  S
C1106      H1119   1.105   1_565  S
C1108      C1109   1.404   1_545  A
C1108      C1113   1.508       .  S
C1109      H1114   1.084       .  S
C1109      C1110   1.405       .  A
C1110      C1111   1.416       .  A
C1111      C1112   1.409       .  A
C1111      C1115   1.506       .  S
C1112      H1116   1.084       .  S
C1113      H1123   1.111       .  S
C1113      H1124   1.110       .  S
C1113      H1125   1.109       .  S
C1115      H1126   1.110       .  S
C1115      H1127   1.108       .  S
C1115      H1128   1.110       .  S
C1129      H1139   1.084       .  S
C1129      C1130   1.404       .  A
C1129      C1134   1.406       .  A
C1130      C1135   1.481       .  S
C1130      C1131   1.407       .  A
C1131      C1132   1.402       .  A
C1131      C1136   1.507       .  S
C1132      H1137   1.084       .  S
C1132      C1133   1.407       .  A
C1133      C1134   1.416       .  A
C1134      C1138   1.508       .  S
C1135      C1140   1.411       .  A
C1135      C1144   1.400       .  A
C1136      H1152   1.110       .  S
C1136      H1153   1.110       .  S
C1136      H1154   1.111       .  S
C1138      H1149   1.110       .  S
C1138      H1150   1.111       .  S
C1138      H1151   1.106       .  S
C1140      C1141   1.406       .  A
C1140      C1145   1.505       .  S
C1141      H1146   1.084       .  S
C1141      C1142   1.403       .  A
C1142      C1143   1.415       .  A
C1143      C1144   1.399       .  A
C1143      C1147   1.508       .  S
C1144      H1148   1.085       .  S
C1145      H1155   1.111       .  S
C1145      H1156   1.110       .  S
C1145      H1157   1.110       .  S
C1147      H1158   1.111       .  S
C1147      H1159   1.109       .  S
C1147      H1160   1.110       .  S
C1161      H1171   1.085       .  S
C1161      C1162   1.403       .  A
C1161      C1166   1.403       .  A
C1162      C1167   1.479       .  S
C1162      C1163   1.408       .  A
C1163      C1164   1.403       .  A
C1163      C1168   1.507       .  S
C1164      H1169   1.085       .  S
C1164      C1165   1.407       .  A
C1165      C1166   1.413       .  A
C1166      C1170   1.507       .  S
C1167      C1172   1.411       .  A
C1167      C1176   1.401       .  A
C1168      H1184   1.110       .  S
C1168      H1185   1.109       .  S
C1168      H1186   1.111       .  S
C1170      H1181   1.110       .  S
C1170      H1182   1.110       .  S
C1170      H1183   1.107       .  S
C1172      C1173   1.402       .  A
C1172      C1177   1.508       .  S
C1173      H1178   1.085       .  S
C1173      C1174   1.403       .  A
C1174      C1175   1.415       .  A
C1175      C1176   1.403       .  A
C1175      C1179   1.507   1_545  S
C1176      H1180   1.085       .  S
C1177      H1187   1.111       .  S
C1177      H1188   1.110       .  S
C1177      H1189   1.109       .  S
C1179      H1190   1.110       .  S
C1179      H1191   1.107       .  S
C1179      H1192   1.110       .  S
C1193      H1203   1.084       .  S
C1193      C1194   1.404       .  A
C1193      C1198   1.409       .  A
C1194      C1199   1.492       .  S
C1194      C1195   1.414       .  A
C1195      C1196   1.405       .  A
C1195      C1200   1.508       .  S
C1196      H1201   1.084       .  S
C1196      C1197   1.403       .  A
C1197      C1198   1.417       .  A
C1198      C1202   1.506       .  S
C1199      C1204   1.413       .  A
C1199      C1208   1.404       .  A
C1200      H1216   1.109       .  S
C1200      H1217   1.111       .  S
C1200      H1218   1.111       .  S
C1202      H1213   1.110       .  S
C1202      H1214   1.111       .  S
C1202      H1215   1.108       .  S
C1204      C1205   1.405       .  A
C1204      C1209   1.507       .  S
C1205      H1210   1.084       .  S
C1205      C1206   1.404       .  A
C1206      C1207   1.415       .  A
C1207      C1208   1.407       .  A
C1207      C1211   1.506       .  S
C1208      H1212   1.084       .  S
C1209      H1219   1.111       .  S
C1209      H1220   1.110       .  S
C1209      H1221   1.110       .  S
C1211      H1222   1.110       .  S
C1211      H1223   1.108       .  S
C1211      H1224   1.110       .  S
C1225      H1235   1.085       .  S
C1225      C1226   1.402   1_556  A
C1225      C1230   1.403       .  A
C1226      C1231   1.488       .  S
C1226      C1227   1.412   1_455  A
C1227      C1228   1.404       .  A
C1227      C1232   1.506       .  S
C1228      H1233   1.084       .  S
C1228      C1229   1.404   1_654  A
C1229      C1230   1.417       .  A
C1230      C1234   1.505       .  S
C1231      C1236   1.414       .  A
C1231      C1240   1.400   1_455  A
C1232      H1248   1.109       .  S
C1232      H1249   1.110   1_655  S
C1232      H1250   1.111       .  S
C1234      H1245   1.110       .  S
C1234      H1246   1.110       .  S
C1234      H1247   1.106       .  S
C1236      C1237   1.408       .  A
C1236      C1241   1.505       .  S
C1237      H1242   1.084       .  S
C1237      C1238   1.403       .  A
C1238      C1239   1.418   1_455  A
C1239      C1240   1.402       .  A
C1239      C1243   1.509       .  S
C1240      H1244   1.085       .  S
C1241      H1251   1.110       .  S
C1241      H1252   1.109   1_554  S
C1241      H1253   1.109       .  S
C1243      H1254   1.111   1_554  S
C1243      H1255   1.107       .  S
C1243      H1256   1.110       .  S
C1257      H1267   1.084   1_655  S
C1257      C1258   1.402   1_554  A
C1257      C1262   1.404       .  A
C1258      C1263   1.482       .  S
C1258      C1259   1.410       .  A
C1259      C1260   1.402       .  A
C1259      C1264   1.507       .  S
C1260      H1265   1.082       .  S
C1260      C1261   1.403       .  A
C1261      C1262   1.414   1_556  A
C1262      C1266   1.505   1_655  S
C1263      C1268   1.411   1_655  A
C1263      C1272   1.402   1_556  A
C1264      H1280   1.110       .  S
C1264      H1281   1.108   1_655  S
C1264      H1282   1.111       .  S
C1266      H1277   1.110       .  S
C1266      H1278   1.110   1_455  S
C1266      H1279   1.107       .  S
C1268      C1269   1.404       .  A
C1268      C1273   1.509       .  S
C1269      H1274   1.084       .  S
C1269      C1270   1.406   1_455  A
C1270      C1271   1.415   1_556  A
C1271      C1272   1.406       .  A
C1271      C1275   1.507       .  S
C1272      H1276   1.084       .  S
C1273      H1283   1.111       .  S
C1273      H1284   1.110   1_556  S
C1273      H1285   1.108       .  S
C1275      H1286   1.109       .  S
C1275      H1287   1.110   1_554  S
C1275      H1288   1.111       .  S
C1289      H1299   1.084       .  S
C1289      C1290   1.402       .  A
C1289      C1294   1.409       .  A
C1290      C1295   1.494       .  S
C1290      C1291   1.410       .  A
C1291      C1292   1.411       .  A
C1291      C1296   1.505       .  S
C1292      H1297   1.084       .  S
C1292      C1293   1.412       .  A
C1293      C1294   1.422       .  A
C1294      C1298   1.508       .  S
C1295      C1300   1.414       .  A
C1295      C1304   1.401       .  A
C1296      H1312   1.110       .  S
C1296      H1313   1.110       .  S
C1296      H1314   1.111       .  S
C1298      H1309   1.109       .  S
C1298      H1310   1.111       .  S
C1298      H1311   1.111       .  S
C1300      C1301   1.411       .  A
C1300      C1305   1.505       .  S
C1301      H1306   1.084       .  S
C1301      C1302   1.405       .  A
C1302      C1303   1.418       .  A
C1303      C1304   1.407       .  A
C1303      C1307   1.507       .  S
C1304      H1308   1.084       .  S
C1305      H1315   1.111       .  S
C1305      H1316   1.110       .  S
C1305      H1317   1.110       .  S
C1307      H1318   1.110       .  S
C1307      H1319   1.109       .  S
C1307      H1320   1.110       .  S
C1321      H1331   1.084       .  S
C1321      C1322   1.403   1_655  A
C1321      C1326   1.411       .  A
C1322      C1327   1.484       .  S
C1322      C1323   1.410       .  A
C1323      C1324   1.401       .  A
C1323      C1328   1.509       .  S
C1324      H1329   1.084       .  S
C1324      C1325   1.407       .  A
C1325      C1326   1.418   1_455  A
C1326      C1330   1.506       .  S
C1327      C1332   1.412       .  A
C1327      C1336   1.401       .  A
C1328      H1344   1.110       .  S
C1328      H1345   1.109       .  S
C1328      H1346   1.111       .  S
C1330      H1341   1.111       .  S
C1330      H1342   1.109       .  S
C1330      H1343   1.110       .  S
C1332      C1333   1.408       .  A
C1332      C1337   1.505   1_455  S
C1333      H1338   1.084       .  S
C1333      C1334   1.404       .  A
C1334      C1335   1.415       .  A
C1335      C1336   1.402       .  A
C1335      C1339   1.508       .  S
C1336      H1340   1.084       .  S
C1337      H1347   1.111       .  S
C1337      H1348   1.110       .  S
C1337      H1349   1.110       .  S
C1339      H1350   1.110       .  S
C1339      H1351   1.108       .  S
C1339      H1352   1.110       .  S
C1353      H1363   1.084       .  S
C1353      C1354   1.401   1_556  A
C1353      C1358   1.404       .  A
C1354      C1359   1.480       .  S
C1354      C1355   1.408       .  A
C1355      C1356   1.402       .  A
C1355      C1360   1.507       .  S
C1356      H1361   1.084       .  S
C1356      C1357   1.408       .  A
C1357      C1358   1.417   1_554  A
C1358      C1362   1.507       .  S
C1359      C1364   1.408       .  A
C1359      C1368   1.401   1_554  A
C1360      H1376   1.109       .  S
C1360      H1377   1.109       .  S
C1360      H1378   1.111       .  S
C1362      H1373   1.110       .  S
C1362      H1374   1.110       .  S
C1362      H1375   1.107       .  S
C1364      C1365   1.401       .  A
C1364      C1369   1.506       .  S
C1365      H1370   1.083       .  S
C1365      C1366   1.406       .  A
C1366      C1367   1.418   1_554  A
C1367      C1368   1.404       .  A
C1367      C1371   1.507       .  S
C1368      H1372   1.084       .  S
C1369      H1379   1.111       .  S
C1369      H1380   1.109       .  S
C1369      H1381   1.109       .  S
C1371      H1382   1.110       .  S
C1371      H1383   1.107       .  S
C1371      H1384   1.110       .  S
C1385      H1395   1.085       .  S
C1385      C1386   1.403   1_554  A
C1385      C1390   1.405       .  A
C1386      C1391   1.483       .  S
C1386      C1387   1.410       .  A
C1387      C1388   1.404       .  A
C1387      C1392   1.508       .  S
C1388      H1393   1.084       .  S
C1388      C1389   1.407       .  A
C1389      C1390   1.416   1_556  A
C1390      C1394   1.507       .  S
C1391      C1396   1.411   1_556  A
C1391      C1400   1.401       .  A
C1392      H1408   1.110       .  S
C1392      H1409   1.111       .  S
C1392      H1410   1.111       .  S
C1394      H1405   1.110       .  S
C1394      H1406   1.111   1_554  S
C1394      H1407   1.107       .  S
C1396      C1397   1.404       .  A
C1396      C1401   1.506       .  S
C1397      H1402   1.084       .  S
C1397      C1398   1.403   1_554  A
C1398      C1399   1.415       .  A
C1399      C1400   1.402       .  A
C1399      C1403   1.505       .  S
C1400      H1404   1.085       .  S
C1401      H1411   1.111       .  S
C1401      H1412   1.110       .  S
C1401      H1413   1.111       .  S
C1403      H1414   1.110       .  S
C1403      H1415   1.107       .  S
C1403      H1416   1.110       .  S
C1417      H1427   1.085       .  S
C1417      C1418   1.398       .  A
C1417      C1422   1.406       .  A
C1418      C1423   1.485       .  S
C1418      C1419   1.413       .  A
C1419      C1420   1.407       .  A
C1419      C1424   1.508       .  S
C1420      H1425   1.084       .  S
C1420      C1421   1.407       .  A
C1421      C1422   1.424       .  A
C1422      C1426   1.509       .  S
C1423      C1428   1.413       .  A
C1423      C1432   1.400       .  A
C1424      H1440   1.110       .  S
C1424      H1441   1.109       .  S
C1424      H1442   1.111       .  S
C1426      H1437   1.110       .  S
C1426      H1438   1.111       .  S
C1426      H1439   1.110       .  S
C1428      C1429   1.408       .  A
C1428      C1433   1.506       .  S
C1429      H1434   1.083       .  S
C1429      C1430   1.404       .  A
C1430      C1431   1.415       .  A
C1431      C1432   1.402       .  A
C1431      C1435   1.507       .  S
C1432      H1436   1.084       .  S
C1433      H1443   1.111       .  S
C1433      H1444   1.110       .  S
C1433      H1445   1.109       .  S
C1435      H1446   1.110       .  S
C1435      H1447   1.109       .  S
C1435      H1448   1.110       .  S
C1449      H1459   1.084       .  S
C1449      C1450   1.399       .  A
C1449      C1454   1.405       .  A
C1450      C1455   1.490       .  S
C1450      C1451   1.411       .  A
C1451      C1452   1.408       .  A
C1451      C1456   1.507       .  S
C1452      H1457   1.084       .  S
C1452      C1453   1.411       .  A
C1453      C1454   1.426       .  A
C1454      C1458   1.510       .  S
C1455      C1460   1.415       .  A
C1455      C1464   1.402       .  A
C1456      H1472   1.109       .  S
C1456      H1473   1.110       .  S
C1456      H1474   1.111       .  S
C1458      H1469   1.110       .  S
C1458      H1470   1.111       .  S
C1458      H1471   1.110       .  S
C1460      C1461   1.409       .  A
C1460      C1465   1.506       .  S
C1461      H1466   1.084       .  S
C1461      C1462   1.404       .  A
C1462      C1463   1.415       .  A
C1463      C1464   1.401       .  A
C1463      C1467   1.508       .  S
C1464      H1468   1.085       .  S
C1465      H1475   1.111       .  S
C1465      H1476   1.109       .  S
C1465      H1477   1.110       .  S
C1467      H1478   1.110       .  S
C1467      H1479   1.108       .  S
C1467      H1480   1.110       .  S
C1481      H1491   1.085       .  S
C1481      C1482   1.401       .  A
C1481      C1486   1.404       .  A
C1482      C1487   1.484       .  S
C1482      C1483   1.412   1_566  A
C1483      C1484   1.407   1_554  A
C1483      C1488   1.507       .  S
C1484      H1489   1.084   1_556  S
C1484      C1485   1.403   1_545  A
C1485      C1486   1.417       .  A
C1486      C1490   1.509       .  S
C1487      C1492   1.410   1_556  A
C1487      C1496   1.400   1_565  A
C1488      H1504   1.110   1_554  S
C1488      H1505   1.110       .  S
C1488      H1506   1.111       .  S
C1490      H1501   1.111       .  S
C1490      H1502   1.111       .  S
C1490      H1503   1.108       .  S
C1492      C1493   1.404       .  A
C1492      C1497   1.506       .  S
C1493      H1498   1.083       .  S
C1493      C1494   1.405   1_554  A
C1494      C1495   1.416   1_565  A
C1495      C1496   1.404       .  A
C1495      C1499   1.504       .  S
C1496      H1500   1.084       .  S
C1497      H1507   1.111       .  S
C1497      H1508   1.110       .  S
C1497      H1509   1.110   1_565  S
C1499      H1510   1.110   1_545  S
C1499      H1511   1.105       .  S
C1499      H1512   1.110       .  S
C1513      H1523   1.084       .  S
C1513      C1514   1.401   1_545  A
C1513      C1518   1.405       .  A
C1514      C1519   1.483       .  S
C1514      C1515   1.410   1_554  A
C1515      C1516   1.402       .  A
C1515      C1520   1.507       .  S
C1516      H1521   1.083       .  S
C1516      C1517   1.405   1_556  A
C1517      C1518   1.419   1_565  A
C1518      C1522   1.506       .  S
C1519      C1524   1.410   1_564  A
C1519      C1528   1.401       .  A
C1520      H1536   1.110       .  S
C1520      H1537   1.109       .  S
C1520      H1538   1.111       .  S
C1522      H1533   1.110       .  S
C1522      H1534   1.110       .  S
C1522      H1535   1.107       .  S
C1524      C1525   1.403       .  A
C1524      C1529   1.507       .  S
C1525      H1530   1.085       .  S
C1525      C1526   1.406   1_546  A
C1526      C1527   1.419       .  A
C1527      C1528   1.406       .  A
C1527      C1531   1.507       .  S
C1528      H1532   1.085       .  S
C1529      H1539   1.111       .  S
C1529      H1540   1.109   1_556  S
C1529      H1541   1.109       .  S
C1531      H1542   1.110       .  S
C1531      H1543   1.106       .  S
C1531      H1544   1.111       .  S
C1545      H1555   1.084       .  S
C1545      C1546   1.403   1_545  A
C1545      C1550   1.407       .  A
C1546      C1551   1.487       .  S
C1546      C1547   1.415       .  A
C1547      C1548   1.405   1_565  A
C1547      C1552   1.510       .  S
C1548      H1553   1.083   1_545  S
C1548      C1549   1.404       .  A
C1549      C1550   1.419       .  A
C1550      C1554   1.507       .  S
C1551      C1556   1.413       .  A
C1551      C1560   1.401       .  A
C1552      H1568   1.110       .  S
C1552      H1569   1.107       .  S
C1552      H1570   1.111       .  S
C1554      H1565   1.110       .  S
C1554      H1566   1.111       .  S
C1554      H1567   1.108       .  S
C1556      C1557   1.410       .  A
C1556      C1561   1.507   1_565  S
C1557      H1562   1.084       .  S
C1557      C1558   1.407       .  A
C1558      C1559   1.416       .  A
C1559      C1560   1.401       .  A
C1559      C1563   1.508       .  S
C1560      H1564   1.085       .  S
C1561      H1571   1.111       .  S
C1561      H1572   1.110       .  S
C1561      H1573   1.107       .  S
C1563      H1574   1.110       .  S
C1563      H1575   1.108       .  S
C1563      H1576   1.110       .  S
C1577      H1587   1.085       .  S
C1577      C1578   1.404       .  A
C1577      C1582   1.403       .  A
C1578      C1583   1.478       .  S
C1578      C1579   1.408       .  A
C1579      C1580   1.400       .  A
C1579      C1584   1.507       .  S
C1580      H1585   1.085       .  S
C1580      C1581   1.406       .  A
C1581      C1582   1.414       .  A
C1582      C1586   1.508       .  S
C1583      C1588   1.411       .  A
C1583      C1592   1.400       .  A
C1584      H1600   1.109       .  S
C1584      H1601   1.110   1_565  S
C1584      H1602   1.111   1_565  S
C1586      H1597   1.110       .  S
C1586      H1598   1.111       .  S
C1586      H1599   1.107       .  S
C1588      C1589   1.403       .  A
C1588      C1593   1.506       .  S
C1589      H1594   1.084       .  S
C1589      C1590   1.403       .  A
C1590      C1591   1.413       .  A
C1591      C1592   1.399       .  A
C1591      C1595   1.507       .  S
C1592      H1596   1.084       .  S
C1593      H1603   1.111       .  S
C1593      H1604   1.109       .  S
C1593      H1605   1.110   1_565  S
C1595      H1606   1.110       .  S
C1595      H1607   1.108       .  S
C1595      H1608   1.110       .  S
C1609      H1619   1.084       .  S
C1609      C1610   1.404       .  A
C1609      C1614   1.407       .  A
C1610      C1615   1.490       .  S
C1610      C1611   1.413       .  A
C1611      C1612   1.404       .  A
C1611      C1616   1.507       .  S
C1612      H1617   1.084       .  S
C1612      C1613   1.403       .  A
C1613      C1614   1.416       .  A
C1614      C1618   1.507       .  S
C1615      C1620   1.411       .  A
C1615      C1624   1.403   1_655  A
C1616      H1632   1.110       .  S
C1616      H1633   1.110       .  S
C1616      H1634   1.111       .  S
C1618      H1629   1.110       .  S
C1618      H1630   1.110       .  S
C1618      H1631   1.108       .  S
C1620      C1621   1.402       .  A
C1620      C1625   1.508       .  S
C1621      H1626   1.084       .  S
C1621      C1622   1.408       .  A
C1622      C1623   1.422   1_655  A
C1623      C1624   1.410       .  A
C1623      C1627   1.507       .  S
C1624      H1628   1.084       .  S
C1625      H1635   1.111       .  S
C1625      H1636   1.110       .  S
C1625      H1637   1.110       .  S
C1627      H1638   1.111       .  S
C1627      H1639   1.110       .  S
C1627      H1640   1.107       .  S
C1641      H1651   1.085       .  S
C1641      C1642   1.401       .  A
C1641      C1646   1.400       .  A
C1642      C1647   1.480       .  S
C1642      C1643   1.410       .  A
C1643      C1644   1.406       .  A
C1643      C1648   1.506       .  S
C1644      H1649   1.084       .  S
C1644      C1645   1.404       .  A
C1645      C1646   1.415       .  A
C1646      C1650   1.508       .  S
C1647      C1652   1.409       .  A
C1647      C1656   1.401       .  A
C1648      H1664   1.110       .  S
C1648      H1665   1.109       .  S
C1648      H1666   1.111       .  S
C1650      H1661   1.110       .  S
C1650      H1662   1.110       .  S
C1650      H1663   1.108       .  S
C1652      C1653   1.400       .  A
C1652      C1657   1.509       .  S
C1653      H1658   1.084       .  S
C1653      C1654   1.408       .  A
C1654      C1655   1.420       .  A
C1655      C1656   1.408       .  A
C1655      C1659   1.507       .  S
C1656      H1660   1.084       .  S
C1657      H1667   1.111       .  S
C1657      H1668   1.110       .  S
C1657      H1669   1.109       .  S
C1659      H1670   1.109       .  S
C1659      H1671   1.110       .  S
C1659      H1672   1.111       .  S
C1673      H1683   1.084       .  S
C1673      C1674   1.402       .  A
C1673      C1678   1.407       .  A
C1674      C1679   1.488       .  S
C1674      C1675   1.411       .  A
C1675      C1676   1.405       .  A
C1675      C1680   1.506       .  S
C1676      H1681   1.083       .  S
C1676      C1677   1.406       .  A
C1677      C1678   1.417       .  A
C1678      C1682   1.504       .  S
C1679      C1684   1.412       .  A
C1679      C1688   1.404       .  A
C1680      H1696   1.111       .  S
C1680      H1697   1.109       .  S
C1680      H1698   1.111       .  S
C1682      H1693   1.110       .  S
C1682      H1694   1.110       .  S
C1682      H1695   1.106       .  S
C1684      C1685   1.405       .  A
C1684      C1689   1.508       .  S
C1685      H1690   1.085       .  S
C1685      C1686   1.404       .  A
C1686      C1687   1.416       .  A
C1687      C1688   1.409       .  A
C1687      C1691   1.506       .  S
C1688      H1692   1.085       .  S
C1689      H1699   1.111       .  S
C1689      H1700   1.111       .  S
C1689      H1701   1.109       .  S
C1691      H1702   1.110       .  S
C1691      H1703   1.109       .  S
C1691      H1704   1.111       .  S
C1705      H1715   1.085       .  S
C1705      C1706   1.400       .  A
C1705      C1710   1.403       .  A
C1706      C1711   1.481       .  S
C1706      C1707   1.411       .  A
C1707      C1708   1.403       .  A
C1707      C1712   1.506       .  S
C1708      H1713   1.084       .  S
C1708      C1709   1.404       .  A
C1709      C1710   1.416       .  A
C1710      C1714   1.504       .  S
C1711      C1716   1.413       .  A
C1711      C1720   1.398       .  A
C1712      H1728   1.110       .  S
C1712      H1729   1.110       .  S
C1712      H1730   1.111       .  S
C1714      H1725   1.110       .  S
C1714      H1726   1.110       .  S
C1714      H1727   1.106       .  S
C1716      C1717   1.410       .  A
C1716      C1721   1.506       .  S
C1717      H1722   1.084       .  S
C1717      C1718   1.405       .  A
C1718      C1719   1.417       .  A
C1719      C1720   1.399       .  A
C1719      C1723   1.509       .  S
C1720      H1724   1.085       .  S
C1721      H1731   1.111       .  S
C1721      H1732   1.111       .  S
C1721      H1733   1.109       .  S
C1723      H1734   1.111       .  S
C1723      H1735   1.107       .  S
C1723      H1736   1.111       .  S
C1737      H1747   1.085       .  S
C1737      C1738   1.404       .  A
C1737      C1742   1.402       .  A
C1738      C1743   1.478       .  S
C1738      C1739   1.408       .  A
C1739      C1740   1.401       .  A
C1739      C1744   1.506       .  S
C1740      H1745   1.085       .  S
C1740      C1741   1.405       .  A
C1741      C1742   1.413       .  A
C1742      C1746   1.508       .  S
C1743      C1748   1.411       .  A
C1743      C1752   1.400       .  A
C1744      H1760   1.109       .  S
C1744      H1761   1.110       .  S
C1744      H1762   1.111       .  S
C1746      H1757   1.110       .  S
C1746      H1758   1.111       .  S
C1746      H1759   1.108       .  S
C1748      C1749   1.403   1_565  A
C1748      C1753   1.506   1_565  S
C1749      H1754   1.084       .  S
C1749      C1750   1.402   1_545  A
C1750      C1751   1.413       .  A
C1751      C1752   1.399       .  A
C1751      C1755   1.507       .  S
C1752      H1756   1.085       .  S
C1753      H1763   1.111       .  S
C1753      H1764   1.109       .  S
C1753      H1765   1.110       .  S
C1755      H1766   1.110       .  S
C1755      H1767   1.109       .  S
C1755      H1768   1.110       .  S
C1769      H1779   1.084       .  S
C1769      C1770   1.404       .  A
C1769      C1774   1.411       .  A
C1770      C1775   1.496       .  S
C1770      C1771   1.416       .  A
C1771      C1772   1.408       .  A
C1771      C1776   1.510       .  S
C1772      H1777   1.084       .  S
C1772      C1773   1.406       .  A
C1773      C1774   1.420       .  A
C1774      C1778   1.507       .  S
C1775      C1780   1.416       .  A
C1775      C1784   1.401       .  A
C1776      H1792   1.110       .  S
C1776      H1793   1.107       .  S
C1776      H1794   1.111       .  S
C1778      H1789   1.110       .  S
C1778      H1790   1.111       .  S
C1778      H1791   1.108       .  S
C1780      C1781   1.413       .  A
C1780      C1785   1.506       .  S
C1781      H1786   1.084       .  S
C1781      C1782   1.406       .  A
C1782      C1783   1.418       .  A
C1783      C1784   1.404       .  A
C1783      C1787   1.508       .  S
C1784      H1788   1.085       .  S
C1785      H1795   1.111       .  S
C1785      H1796   1.110       .  S
C1785      H1797   1.107       .  S
C1787      H1798   1.110       .  S
C1787      H1799   1.109       .  S
C1787      H1800   1.110       .  S
C1801      H1811   1.085       .  S
C1801      C1802   1.399       .  A
C1801      C1806   1.403       .  A
C1802      C1807   1.482       .  S
C1802      C1803   1.414       .  A
C1803      C1804   1.405       .  A
C1803      C1808   1.508       .  S
C1804      H1809   1.084       .  S
C1804      C1805   1.401       .  A
C1805      C1806   1.418       .  A
C1806      C1810   1.508       .  S
C1807      C1812   1.410       .  A
C1807      C1816   1.403       .  A
C1808      H1824   1.110       .  S
C1808      H1825   1.109       .  S
C1808      H1826   1.111       .  S
C1810      H1821   1.110       .  S
C1810      H1822   1.111       .  S
C1810      H1823   1.108       .  S
C1812      C1813   1.403       .  A
C1812      C1817   1.507       .  S
C1813      H1818   1.084       .  S
C1813      C1814   1.403       .  A
C1814      C1815   1.413       .  A
C1815      C1816   1.404       .  A
C1815      C1819   1.506       .  S
C1816      H1820   1.084       .  S
C1817      H1827   1.111       .  S
C1817      H1828   1.110       .  S
C1817      H1829   1.109       .  S
C1819      H1830   1.111       .  S
C1819      H1831   1.109       .  S
C1819      H1832   1.110       .  S
C1833      H1843   1.085       .  S
C1833      C1834   1.398       .  A
C1833      C1838   1.399       .  A
C1834      C1839   1.477       .  S
C1834      C1835   1.412       .  A
C1835      C1836   1.405       .  A
C1835      C1840   1.506       .  S
C1836      H1841   1.084       .  S
C1836      C1837   1.402       .  A
C1837      C1838   1.416       .  A
C1838      C1842   1.509   1_545  S
C1839      C1844   1.409       .  A
C1839      C1848   1.399       .  A
C1840      H1856   1.108       .  S
C1840      H1857   1.108       .  S
C1840      H1858   1.111       .  S
C1842      H1853   1.111       .  S
C1842      H1854   1.111       .  S
C1842      H1855   1.108       .  S
C1844      C1845   1.402       .  A
C1844      C1849   1.506       .  S
C1845      H1850   1.084       .  S
C1845      C1846   1.406       .  A
C1846      C1847   1.418       .  A
C1847      C1848   1.400       .  A
C1847      C1851   1.507       .  S
C1848      H1852   1.085       .  S
C1849      H1859   1.111       .  S
C1849      H1860   1.110       .  S
C1849      H1861   1.108       .  S
C1851      H1862   1.110       .  S
C1851      H1863   1.107       .  S
C1851      H1864   1.110       .  S
C1865      H1875   1.085       .  S
C1865      C1866   1.404       .  A
C1865      C1870   1.407       .  A
C1866      C1871   1.485       .  S
C1866      C1867   1.410       .  A
C1867      C1868   1.404       .  A
C1867      C1872   1.509       .  S
C1868      H1873   1.084       .  S
C1868      C1869   1.406       .  A
C1869      C1870   1.416       .  A
C1870      C1874   1.506       .  S
C1871      C1876   1.412       .  A
C1871      C1880   1.401       .  A
C1872      H1888   1.110       .  S
C1872      H1889   1.108       .  S
C1872      H1890   1.111       .  S
C1874      H1885   1.110       .  S
C1874      H1886   1.111       .  S
C1874      H1887   1.108   1_655  S
C1876      C1877   1.405       .  A
C1876      C1881   1.507       .  S
C1877      H1882   1.083       .  S
C1877      C1878   1.403       .  A
C1878      C1879   1.416       .  A
C1879      C1880   1.404       .  A
C1879      C1883   1.505       .  S
C1880      H1884   1.084       .  S
C1881      H1891   1.111       .  S
C1881      H1892   1.110       .  S
C1881      H1893   1.108       .  S
C1883      H1894   1.111       .  S
C1883      H1895   1.106       .  S
C1883      H1896   1.110       .  S
C1897      H1907   1.084       .  S
C1897      C1898   1.403       .  A
C1897      C1902   1.407       .  A
C1898      C1903   1.486       .  S
C1898      C1899   1.412       .  A
C1899      C1900   1.401       .  A
C1899      C1904   1.509       .  S
C1900      H1905   1.084       .  S
C1900      C1901   1.406       .  A
C1901      C1902   1.418       .  A
C1902      C1906   1.506       .  S
C1903      C1908   1.414       .  A
C1903      C1912   1.403   1_455  A
C1904      H1920   1.109   1_455  S
C1904      H1921   1.111       .  S
C1904      H1922   1.111       .  S
C1906      H1917   1.110       .  S
C1906      H1918   1.111       .  S
C1906      H1919   1.108       .  S
C1908      C1909   1.403       .  A
C1908      C1913   1.507       .  S
C1909      H1914   1.084       .  S
C1909      C1910   1.401       .  A
C1910      C1911   1.414   1_455  A
C1911      C1912   1.405       .  A
C1911      C1915   1.506       .  S
C1912      H1916   1.084       .  S
C1913      H1923   1.111       .  S
C1913      H1924   1.110       .  S
C1913      H1925   1.110       .  S
C1915      H1926   1.110       .  S
C1915      H1927   1.109       .  S
C1915      H1928   1.110       .  S
C1929      H1939   1.084       .  S
C1929      C1930   1.402       .  A
C1929      C1934   1.405       .  A
C1930      C1935   1.482       .  S
C1930      C1931   1.409       .  A
C1931      C1932   1.406       .  A
C1931      C1936   1.506       .  S
C1932      H1937   1.084       .  S
C1932      C1933   1.408       .  A
C1933      C1934   1.415       .  A
C1934      C1938   1.507       .  S
C1935      C1940   1.411       .  A
C1935      C1944   1.402       .  A
C1936      H1952   1.110       .  S
C1936      H1953   1.109       .  S
C1936      H1954   1.111       .  S
C1938      H1949   1.111       .  S
C1938      H1950   1.109       .  S
C1938      H1951   1.110       .  S
C1940      C1941   1.405       .  A
C1940      C1945   1.506       .  S
C1941      H1946   1.084       .  S
C1941      C1942   1.403       .  A
C1942      C1943   1.414       .  A
C1943      C1944   1.402       .  A
C1943      C1947   1.507   1_565  S
C1944      H1948   1.085   1_565  S
C1945      H1955   1.111       .  S
C1945      H1956   1.110       .  S
C1945      H1957   1.109       .  S
C1947      H1958   1.111       .  S
C1947      H1959   1.109       .  S
C1947      H1960   1.110       .  S
C1961      H1971   1.084       .  S
C1961      C1962   1.401   1_655  A
C1961      C1966   1.404       .  A
C1962      C1967   1.478   1_455  S
C1962      C1963   1.406       .  A
C1963      C1964   1.402       .  A
C1963      C1968   1.506       .  S
C1964      H1969   1.084       .  S
C1964      C1965   1.409       .  A
C1965      C1966   1.418   1_455  A
C1966      C1970   1.508       .  S
C1967      C1972   1.410       .  A
C1967      C1976   1.401       .  A
C1968      H1984   1.110       .  S
C1968      H1985   1.110       .  S
C1968      H1986   1.111       .  S
C1970      H1981   1.110       .  S
C1970      H1982   1.111       .  S
C1970      H1983   1.110       .  S
C1972      C1973   1.402       .  A
C1972      C1977   1.506       .  S
C1973      H1978   1.085       .  S
C1973      C1974   1.403       .  A
C1974      C1975   1.413       .  A
C1975      C1976   1.401       .  A
C1975      C1979   1.506       .  S
C1976      H1980   1.085   1_655  S
C1977      H1987   1.111       .  S
C1977      H1988   1.110       .  S
C1977      H1989   1.110       .  S
C1979      H1990   1.110       .  S
C1979      H1991   1.109       .  S
C1979      H1992   1.110   1_655  S
C1993      H2003   1.084       .  S
C1993      C1994   1.400       .  A
C1993      C1998   1.404       .  A
C1994      C1999   1.488       .  S
C1994      C1995   1.413       .  A
C1995      C1996   1.409       .  A
C1995      C2000   1.505       .  S
C1996      H2001   1.084       .  S
C1996      C1997   1.404       .  A
C1997      C1998   1.418       .  A
C1998      C2002   1.507       .  S
C1999      C2004   1.412       .  A
C1999      C2008   1.398       .  A
C2000      H2016   1.110       .  S
C2000      H2017   1.110       .  S
C2000      H2018   1.111       .  S
C2002      H2013   1.109       .  S
C2002      H2014   1.110       .  S
C2002      H2015   1.110       .  S
C2004      C2005   1.407       .  A
C2004      C2009   1.507       .  S
C2005      H2010   1.085       .  S
C2005      C2006   1.408       .  A
C2006      C2007   1.425       .  A
C2007      C2008   1.408       .  A
C2007      C2011   1.508       .  S
C2008      H2012   1.085       .  S
C2009      H2019   1.111       .  S
C2009      H2020   1.110       .  S
C2009      H2021   1.110       .  S
C2011      H2022   1.109       .  S
C2011      H2023   1.110   1_655  S
C2011      H2024   1.111       .  S
C2025      H2035   1.085       .  S
C2025      C2026   1.402       .  A
C2025      C2030   1.398       .  A
C2026      C2031   1.486   1_545  S
C2026      C2027   1.414       .  A
C2027      C2028   1.408       .  A
C2027      C2032   1.506   1_545  S
C2028      H2033   1.084       .  S
C2028      C2029   1.405       .  A
C2029      C2030   1.414       .  A
C2030      C2034   1.508       .  S
C2031      C2036   1.412       .  A
C2031      C2040   1.401   1_565  A
C2032      H2048   1.109       .  S
C2032      H2049   1.110       .  S
C2032      H2050   1.111       .  S
C2034      H2045   1.110       .  S
C2034      H2046   1.108       .  S
C2034      H2047   1.110       .  S
C2036      C2037   1.405       .  A
C2036      C2041   1.507       .  S
C2037      H2042   1.085       .  S
C2037      C2038   1.406       .  A
C2038      C2039   1.420       .  A
C2039      C2040   1.404   1_565  A
C2039      C2043   1.509       .  S
C2040      H2044   1.085       .  S
C2041      H2051   1.111       .  S
C2041      H2052   1.108   1_565  S
C2041      H2053   1.110       .  S
C2043      H2054   1.110   1_565  S
C2043      H2055   1.110       .  S
C2043      H2056   1.111   1_565  S
C2057      H2067   1.084       .  S
C2057      C2058   1.404   1_545  A
C2057      C2062   1.406       .  A
C2058      C2063   1.486       .  S
C2058      C2059   1.413       .  A
C2059      C2060   1.403   1_565  A
C2059      C2064   1.507       .  S
C2060      H2065   1.084       .  S
C2060      C2061   1.401       .  A
C2061      C2062   1.412       .  A
C2062      C2066   1.506       .  S
C2063      C2068   1.413       .  A
C2063      C2072   1.403       .  A
C2064      H2080   1.110       .  S
C2064      H2081   1.110       .  S
C2064      H2082   1.111       .  S
C2066      H2077   1.111       .  S
C2066      H2078   1.110       .  S
C2066      H2079   1.110       .  S
C2068      C2069   1.402       .  A
C2068      C2073   1.508   1_565  S
C2069      H2074   1.085       .  S
C2069      C2070   1.404       .  A
C2070      C2071   1.416       .  A
C2071      C2072   1.409       .  A
C2071      C2075   1.506       .  S
C2072      H2076   1.084       .  S
C2073      H2083   1.111       .  S
C2073      H2084   1.109       .  S
C2073      H2085   1.111       .  S
C2075      H2086   1.110       .  S
C2075      H2087   1.109       .  S
C2075      H2088   1.111       .  S
C2089      H2099   1.085       .  S
C2089      C2090   1.402       .  A
C2089      C2094   1.404       .  A
C2090      C2095   1.494       .  S
C2090      C2091   1.416       .  A
C2091      C2092   1.410       .  A
C2091      C2096   1.506       .  S
C2092      H2097   1.085       .  S
C2092      C2093   1.404       .  A
C2093      C2094   1.416       .  A
C2094      C2098   1.507       .  S
C2095      C2100   1.411       .  A
C2095      C2104   1.402       .  A
C2096      H2112   1.109       .  S
C2096      H2113   1.110       .  S
C2096      H2114   1.111       .  S
C2098      H2109   1.110       .  S
C2098      H2110   1.110       .  S
C2098      H2111   1.109       .  S
C2100      C2101   1.409       .  A
C2100      C2105   1.507       .  S
C2101      H2106   1.082       .  S
C2101      C2102   1.412       .  A
C2102      C2103   1.424       .  A
C2103      C2104   1.408       .  A
C2103      C2107   1.509       .  S
C2104      H2108   1.084       .  S
C2105      H2115   1.111       .  S
C2105      H2116   1.109       .  S
C2105      H2117   1.110       .  S
C2107      H2118   1.111       .  S
C2107      H2119   1.110       .  S
C2107      H2120   1.110       .  S
C2121      H2131   1.085       .  S
C2121      C2122   1.399       .  A
C2121      C2126   1.401       .  A
C2122      C2127   1.481       .  S
C2122      C2123   1.412       .  A
C2123      C2124   1.407       .  A
C2123      C2128   1.505       .  S
C2124      H2129   1.085       .  S
C2124      C2125   1.403       .  A
C2125      C2126   1.413       .  A
C2126      C2130   1.507       .  S
C2127      C2132   1.413       .  A
C2127      C2136   1.398       .  A
C2128      H2144   1.110   1_545  S
C2128      H2145   1.109       .  S
C2128      H2146   1.111   1_545  S
C2130      H2141   1.111       .  S
C2130      H2142   1.110       .  S
C2130      H2143   1.108       .  S
C2132      C2133   1.405       .  A
C2132      C2137   1.508       .  S
C2133      H2138   1.084       .  S
C2133      C2134   1.404       .  A
C2134      C2135   1.421       .  A
C2135      C2136   1.404       .  A
C2135      C2139   1.510   1_545  S
C2136      H2140   1.084       .  S
C2137      H2147   1.111       .  S
C2137      H2148   1.110       .  S
C2137      H2149   1.109       .  S
C2139      H2150   1.110       .  S
C2139      H2151   1.106       .  S
C2139      H2152   1.111       .  S
C2153      H2163   1.084   1_565  S
C2153      C2154   1.399       .  A
C2153      C2158   1.407       .  A
C2154      C2159   1.491   1_565  S
C2154      C2155   1.411       .  A
C2155      C2156   1.410       .  A
C2155      C2160   1.507       .  S
C2156      H2161   1.084       .  S
C2156      C2157   1.411       .  A
C2157      C2158   1.426       .  A
C2158      C2162   1.510       .  S
C2159      C2164   1.413       .  A
C2159      C2168   1.404       .  A
C2160      H2176   1.110       .  S
C2160      H2177   1.108       .  S
C2160      H2178   1.111       .  S
C2162      H2173   1.111   1_565  S
C2162      H2174   1.110       .  S
C2162      H2175   1.110       .  S
C2164      C2165   1.405       .  A
C2164      C2169   1.509   1_545  S
C2165      H2170   1.085       .  S
C2165      C2166   1.406       .  A
C2166      C2167   1.419       .  A
C2167      C2168   1.410       .  A
C2167      C2171   1.507       .  S
C2168      H2172   1.084       .  S
C2169      H2179   1.111   1_565  S
C2169      H2180   1.110       .  S
C2169      H2181   1.108       .  S
C2171      H2182   1.110       .  S
C2171      H2183   1.107       .  S
C2171      H2184   1.110       .  S
C2185      H2195   1.084       .  S
C2185      C2186   1.400       .  A
C2185      C2190   1.407       .  A
C2186      C2191   1.489       .  S
C2186      C2187   1.411       .  A
C2187      C2188   1.409       .  A
C2187      C2192   1.505       .  S
C2188      H2193   1.084       .  S
C2188      C2189   1.407       .  A
C2189      C2190   1.422       .  A
C2190      C2194   1.509       .  S
C2191      C2196   1.410       .  A
C2191      C2200   1.402       .  A
C2192      H2208   1.108       .  S
C2192      H2209   1.110       .  S
C2192      H2210   1.111       .  S
C2194      H2205   1.111       .  S
C2194      H2206   1.109       .  S
C2194      H2207   1.111       .  S
C2196      C2197   1.405       .  A
C2196      C2201   1.506       .  S
C2197      H2202   1.083       .  S
C2197      C2198   1.407       .  A
C2198      C2199   1.420       .  A
C2199      C2200   1.407       .  A
C2199      C2203   1.506       .  S
C2200      H2204   1.084       .  S
C2201      H2211   1.111       .  S
C2201      H2212   1.110       .  S
C2201      H2213   1.109       .  S
C2203      H2214   1.110       .  S
C2203      H2215   1.107       .  S
C2203      H2216   1.110       .  S
C2217      H2227   1.084       .  S
C2217      C2218   1.402       .  A
C2217      C2222   1.403       .  A
C2218      C2223   1.482       .  S
C2218      C2219   1.411       .  A
C2219      C2220   1.401       .  A
C2219      C2224   1.506       .  S
C2220      H2225   1.083       .  S
C2220      C2221   1.402       .  A
C2221      C2222   1.414       .  A
C2222      C2226   1.506       .  S
C2223      C2228   1.410       .  A
C2223      C2232   1.404       .  A
C2224      H2240   1.110       .  S
C2224      H2241   1.111       .  S
C2224      H2242   1.111       .  S
C2226      H2237   1.110       .  S
C2226      H2238   1.110       .  S
C2226      H2239   1.108       .  S
C2228      C2229   1.402       .  A
C2228      C2233   1.509       .  S
C2229      H2234   1.085       .  S
C2229      C2230   1.406       .  A
C2230      C2231   1.416       .  A
C2231      C2232   1.406       .  A
C2231      C2235   1.507       .  S
C2232      H2236   1.085       .  S
C2233      H2243   1.111       .  S
C2233      H2244   1.109       .  S
C2233      H2245   1.111       .  S
C2235      H2246   1.110       .  S
C2235      H2247   1.107   1_655  S
C2235      H2248   1.110       .  S
C2249      H2259   1.084       .  S
C2249      C2250   1.402       .  A
C2249      C2254   1.413       .  A
C2250      C2255   1.495       .  S
C2250      C2251   1.411       .  A
C2251      C2252   1.407       .  A
C2251      C2256   1.507       .  S
C2252      H2257   1.083       .  S
C2252      C2253   1.410       .  A
C2253      C2254   1.425       .  A
C2254      C2258   1.508       .  S
C2255      C2260   1.413   1_455  A
C2255      C2264   1.402       .  A
C2256      H2272   1.110       .  S
C2256      H2273   1.110   1_455  S
C2256      H2274   1.111       .  S
C2258      H2269   1.111       .  S
C2258      H2270   1.109       .  S
C2258      H2271   1.110       .  S
C2260      C2261   1.412       .  A
C2260      C2265   1.504       .  S
C2261      H2266   1.084       .  S
C2261      C2262   1.406   1_655  A
C2262      C2263   1.417       .  A
C2263      C2264   1.405       .  A
C2263      C2267   1.508       .  S
C2264      H2268   1.084       .  S
C2265      H2275   1.111       .  S
C2265      H2276   1.110       .  S
C2265      H2277   1.110       .  S
C2267      H2278   1.110       .  S
C2267      H2279   1.109       .  S
C2267      H2280   1.110       .  S
C2281      H2291   1.084       .  S
C2281      C2282   1.402       .  A
C2281      C2286   1.405       .  A
C2282      C2287   1.480       .  S
C2282      C2283   1.407       .  A
C2283      C2284   1.403       .  A
C2283      C2288   1.506       .  S
C2284      H2289   1.084       .  S
C2284      C2285   1.409       .  A
C2285      C2286   1.418       .  A
C2286      C2290   1.508       .  S
C2287      C2292   1.411       .  A
C2287      C2296   1.401       .  A
C2288      H2304   1.110       .  S
C2288      H2305   1.110       .  S
C2288      H2306   1.111       .  S
C2290      H2301   1.111       .  S
C2290      H2302   1.110       .  S
C2290      H2303   1.109       .  S
C2292      C2293   1.404       .  A
C2292      C2297   1.506       .  S
C2293      H2298   1.084       .  S
C2293      C2294   1.402       .  A
C2294      C2295   1.414       .  A
C2295      C2296   1.402       .  A
C2295      C2299   1.507       .  S
C2296      H2300   1.084       .  S
C2297      H2307   1.111       .  S
C2297      H2308   1.110       .  S
C2297      H2309   1.110       .  S
C2299      H2310   1.110       .  S
C2299      H2311   1.108       .  S
C2299      H2312   1.110       .  S
C2313      H2323   1.084       .  S
C2313      C2314   1.399   1_455  A
C2313      C2318   1.409       .  A
C2314      C2319   1.492       .  S
C2314      C2315   1.414       .  A
C2315      C2316   1.410       .  A
C2315      C2320   1.507       .  S
C2316      H2321   1.084       .  S
C2316      C2317   1.406   1_655  A
C2317      C2318   1.424       .  A
C2318      C2322   1.509       .  S
C2319      C2324   1.414       .  A
C2319      C2328   1.403       .  A
C2320      H2336   1.110       .  S
C2320      H2337   1.109       .  S
C2320      H2338   1.111       .  S
C2322      H2333   1.111       .  S
C2322      H2334   1.110       .  S
C2322      H2335   1.110       .  S
C2324      C2325   1.409       .  A
C2324      C2329   1.506       .  S
C2325      H2330   1.083       .  S
C2325      C2326   1.405       .  A
C2326      C2327   1.414       .  A
C2327      C2328   1.407       .  A
C2327      C2331   1.506       .  S
C2328      H2332   1.083       .  S
C2329      H2339   1.111       .  S
C2329      H2340   1.110       .  S
C2329      H2341   1.109       .  S
C2331      H2342   1.110       .  S
C2331      H2343   1.110       .  S
C2331      H2344   1.111       .  S
C2345      H2355   1.084       .  S
C2345      C2346   1.402       .  A
C2345      C2350   1.402       .  A
C2346      C2351   1.488       .  S
C2346      C2347   1.413       .  A
C2347      C2348   1.408       .  A
C2347      C2352   1.506       .  S
C2348      H2353   1.083       .  S
C2348      C2349   1.405       .  A
C2349      C2350   1.416       .  A
C2350      C2354   1.508       .  S
C2351      C2356   1.410       .  A
C2351      C2360   1.399       .  A
C2352      H2368   1.109       .  S
C2352      H2369   1.110       .  S
C2352      H2370   1.111       .  S
C2354      H2365   1.110       .  S
C2354      H2366   1.110       .  S
C2354      H2367   1.108       .  S
C2356      C2357   1.407       .  A
C2356      C2361   1.506       .  S
C2357      H2362   1.083       .  S
C2357      C2358   1.411       .  A
C2358      C2359   1.427       .  A
C2359      C2360   1.405       .  A
C2359      C2363   1.510       .  S
C2360      H2364   1.084       .  S
C2361      H2371   1.111       .  S
C2361      H2372   1.109       .  S
C2361      H2373   1.110       .  S
C2363      H2374   1.111       .  S
C2363      H2375   1.110       .  S
C2363      H2376   1.110       .  S
