geometry optimzed in LAMMPS
_audit_creation_date              2020-11-30 
_audit_creation_method            'lammps2cif' 
_symmetry_space_group_name_H-M    'P1' 
_symmetry_Int_Tables_number       1 
_symmetry_cell_setting            triclinic 
loop_ 
_symmetry_equiv_pos_as_xyz 
  x,y,z 
_cell_length_a                    48.29052215 
_cell_length_b                    34.387174420443415 
_cell_length_c                    40.34688011636955 
_cell_angle_alpha                 90.00582111978082 
_cell_angle_beta                  118.8879078686644 
_cell_angle_gamma                 90.19249492664 
loop_ 
_atom_site_label 
_atom_site_type_symbol 
_atom_site_fract_x 
_atom_site_fract_y 
_atom_site_fract_z 
_atom_site_charge 
C1          C  0.88479158  0.18588009  0.66799871     0.81700
N2          N  0.85333160  0.19162740  0.65350922    -0.76600
C3          C  0.83709366  0.21416410  0.62257731     0.84200
N4          N  0.85257451  0.23111572  0.60596466    -0.76500
C5          C  0.88405137  0.22550686  0.62007704     0.84300
N6          N  0.90018988  0.20275434  0.65110231    -0.78200
O7          O  0.51080662  0.28418324  0.39712339    -0.79400
O8          O  0.47848573  0.14623230  0.47782653    -0.64100
O9          O  0.49993994  0.24456287  0.45181609    -1.10700
C10         C  0.60380365  0.20324353  0.51371170     1.07500
O11         O  0.52277688  0.13657434  0.53176175    -0.77300
O12         O  0.54843241  0.20863848  0.55116785    -0.60500
Ni13       Ni  0.47543650  0.26338277  0.40097654     1.34900
C14         C  0.55416953  0.24355621  0.54615294     0.86200
O15         O  0.44627253  0.21030507  0.44833798    -0.77800
O16         O  0.43642130  0.24683844  0.39809665    -0.88100
C17         C  0.49393184  0.12878779  0.50920484     0.85800
O18         O  0.47846090  0.21691648  0.37739950    -0.66300
O19         O  0.59531532  0.18693266  0.53565224    -0.85600
C20         C  0.47534992  0.18169118  0.38437588     0.86700
C21         C  0.42743130  0.22865151  0.41867111     1.08200
H22         H  0.53232714  0.16202965  0.46221018     0.40000
O23         O  0.53148089  0.18141700  0.47902271    -1.08200
O24         O  0.55569334  0.25403915  0.51668292    -0.64900
Ni25       Ni  0.54251356  0.23097754  0.46710366     1.26300
O26         O  0.47591797  0.17124790  0.41502072    -0.65100
O27         O  0.58430948  0.21575825  0.48132978    -0.77400
C28         C  0.53836445  0.29520672  0.42130403     0.86000
O29         O  0.55244830  0.28044068  0.45407283    -0.64600
Ni30       Ni  0.55691604  0.16379186  0.53012243     1.27400
Ni31       Ni  0.48860644  0.19516270  0.46379360     1.26100
H32         H  0.49920610  0.26393319  0.46872205     0.40600
C33         C  0.14273100  0.23291750  0.25169169     0.81700
N34         N  0.12780374  0.21240863  0.26722472    -0.76600
C35         C  0.14473592  0.19072983  0.29883583     0.84200
N36         N  0.17675784  0.19048753  0.31522809    -0.76500
C37         C  0.19180844  0.21098964  0.29993684     0.84300
N38         N  0.17471839  0.23192072  0.26801786    -0.78200
C39         C  0.64666976  0.52498222  0.28335518     0.81700
N40         N  0.63155039  0.50462055  0.29891385    -0.76600
C41         C  0.64838482  0.48291403  0.33073346     0.84200
N42         N  0.68043292  0.48181551  0.34676417    -0.76500
C43         C  0.69566466  0.50171313  0.33136034     0.84300
N44         N  0.67860772  0.52297938  0.29977866    -0.78200
O45         O  0.00874735  0.51397872  0.38484462    -0.79400
O46         O  0.97628116  0.39075256  0.47459550    -0.64100
O47         O  0.99997349  0.48425018  0.44453616    -1.10700
C48         C  0.10180874  0.43611513  0.50142403     1.07500
O49         O  0.02260750  0.37416296  0.52317060    -0.77300
O50         O  0.04551462  0.44815187  0.53988245    -0.64900
Ni51       Ni  0.97416509  0.50516370  0.39521472     1.34900
C52         C  0.04902113  0.99011069  0.53313336     0.86200
O53         O  0.94654741  0.45672816  0.44664832    -0.77800
O54         O  0.93690016  0.49959043  0.40049082    -0.88100
C55         C  0.99295606  0.36970491  0.50309627     0.85800
O56         O  0.96592049  0.45748282  0.36831207    -0.66300
O57         O  0.09347664  0.42677836  0.52576040    -0.85600
C58         C  0.96435523  0.42245909  0.37705310     0.86700
C59         C  0.92859272  0.48083355  0.42153841     1.08200
H60         H  0.02755414  0.39903263  0.45310487     0.40000
O61         O  0.02880668  0.41935913  0.47025553    -1.08200
O62         O  0.05245431  0.99818590  0.50442569    -0.64900
Ni63       Ni  0.04106743  0.46693253  0.45674436     1.26300
O64         O  0.97065176  0.41223070  0.41019760    -0.65100
O65         O  0.08187557  0.44794702  0.46882151    -0.77400
C66         C  0.03108710  0.02823759  0.40360239     0.86000
O67         O  0.04539661  0.02014346  0.43845961    -0.64600
Ni68       Ni  0.05569129  0.40281719  0.52113219     1.27400
Ni69       Ni  0.98742692  0.43737184  0.45869951     1.26100
H70         H  0.99686608  0.00743206  0.46141799     0.40600
C71         C  0.38262007  0.39104195  0.64876553     0.81700
N72         N  0.35059454  0.39053976  0.62790038    -0.76600
C73         C  0.33520295  0.41224748  0.59611888     0.84200
N74         N  0.35044140  0.95023590  0.58714550    -0.76500
C75         C  0.38244223  0.94815343  0.60381101     0.84300
N76         N  0.39838801  0.92481272  0.63453877    -0.78200
C77         C  0.87119597  0.24241035  0.15227083     0.81700
N78         N  0.83919973  0.23945878  0.13314884    -0.76600
C79         C  0.82425896  0.21797654  0.10096839     0.84200
N80         N  0.84170712  0.19914316  0.08788645    -0.76500
C81         C  0.87377133  0.20195852  0.10668844     0.84300
N82         N  0.88834784  0.22364303  0.13874164    -0.78200
O83         O  0.51207665  0.26571313  0.03080101    -0.79400
O84         O  0.53960914  0.12597370  0.95494713    -0.64100
O85         O  0.51984307  0.22770211  0.97416680    -1.10700
C86         C  0.41603808  0.17959111  0.91772441     1.07500
O87         O  0.49989682  0.12512137  0.89640145    -0.77300
O88         O  0.46643184  0.19094694  0.87518411    -0.64900
Ni89       Ni  0.54636877  0.25294886  0.02129869     1.34900
C90         C  0.46330303  0.22637794  0.88134193     0.86200
O91         O  0.57348432  0.18970787  0.98090638    -0.77800
O92         O  0.58333415  0.24367096  0.01596640    -0.88100
C93         C  0.52686700  0.11318961  0.92137100     0.85800
O94         O  0.55465019  0.20891030  0.05353307    -0.66300
O95         O  0.42501680  0.16083652  0.89736936    -0.85600
C96         C  0.55062582  0.17257416  0.04751928     0.86700
C97         C  0.59153125  0.21739183  0.00015606     1.08200
H98         H  0.48626352  0.14627523  0.96666674     0.40000
O99         O  0.48772598  0.16490524  0.94976878    -1.08200
O100        O  0.46356108  0.23775123  0.91150213    -0.64900
Ni101      Ni  0.47713865  0.21505637  0.96078229     1.26300
O102        O  0.54144057  0.15759725  0.01505113    -0.65100
O103        O  0.43464473  0.20000715  0.94631657    -0.77400
C104        C  0.48465215  0.27853653  0.00835485     0.86000
O105        O  0.46889522  0.26507323  0.97499294    -0.64600
Ni106      Ni  0.46390316  0.14491874  0.89963330     1.27400
Ni107      Ni  0.53070056  0.17684961  0.96561841     1.26100
H108        H  0.51991386  0.24439961  0.95493213     0.40600
C109        C  0.13348168  0.16305783  0.75812144     0.81700
N110        N  0.11841778  0.18910273  0.76904944    -0.76600
C111        C  0.13487740  0.20944970  0.80172718     0.84200
N112        N  0.16647538  0.20375837  0.82312981    -0.76500
C113        C  0.18178142  0.17786316  0.81242654     0.84300
N114        N  0.16504671  0.15745005  0.77987857    -0.78200
C115        C  0.64572393  0.39862802  0.78742755     0.81700
N116        N  0.62935246  0.41616503  0.80283536    -0.76600
C117        C  0.64765919  0.93800233  0.83502903     0.84200
N118        N  0.67979018  0.93965624  0.85301808    -0.76500
C119        C  0.69345125  0.41718565  0.84102683     0.84300
N120        N  0.67780840  0.39921500  0.80697177    -0.78200
C121        C  0.38360634  0.50064801  0.16191625     0.81700
N122        N  0.39917318  0.47895089  0.14787653    -0.76600
C123        C  0.38272624  0.45695305  0.11610691     0.84200
N124        N  0.35062697  0.45697575  0.09834243    -0.76500
C125        C  0.33486699  0.47839366  0.11196236     0.84300
N126        N  0.35151385  0.49994765  0.14366239    -0.78200
O127        O  0.02012646  0.52796472  0.03653014    -0.79400
O128        O  0.04895836  0.39721600  0.94523024    -0.64100
O129        O  0.02676411  0.49091732  0.97765720    -1.10700
C130        C  0.92465450  0.44031785  0.92409450     1.07500
O131        O  0.00290239  0.38729745  0.89352470    -0.77300
O132        O  0.97510281  0.45685005  0.87976515    -0.64900
Ni133      Ni  0.05392092  0.51040585  0.02775659     1.34900
C134        C  0.97091433  0.99849377  0.88326470     0.86200
O135        O  0.07932693  0.46263883  0.97371276    -0.77800
O136        O  0.09173069  0.49751007  0.02567977    -0.88100
C137        C  0.03240702  0.38160754  0.91303145     0.85800
O138        O  0.05472414  0.46276380  0.05187218    -0.66300
O139        O  0.93194733  0.42805287  0.89962672    -0.85600
C140        C  0.05794103  0.42817374  0.04337226     0.86700
C141        C  0.09904862  0.48151546  0.00256055     1.08200
H142        H  0.99866816  0.40522585  0.96808592     0.40000
O143        O  0.99729389  0.42597296  0.95124597    -1.08200
O144        O  0.97782870  0.00829608  0.91670750    -0.64900
Ni145      Ni  0.98573227  0.47299020  0.96662201     1.26300
O146        O  0.05544468  0.41876496  0.01143743    -0.65100
O147        O  0.94523980  0.45376167  0.95575019    -0.77400
C148        C  0.99596645  0.04028183  0.01458831     0.86000
O149        O  0.98177834  0.02970725  0.98028189    -0.64600
Ni150      Ni  0.96972383  0.40958256  0.90020021     1.27400
Ni151      Ni  0.03858337  0.44379523  0.96250833     1.26100
H152        H  0.03365938  0.01317342  0.96287102     0.40600
C153        C  0.25115538  0.48477531  0.09603617     0.14200
C154        C  0.23322876  0.48080882  0.05648639     0.01100
C155        C  0.24892205  0.47449292  0.03532438     0.16100
C156        C  0.28196968  0.47269503  0.05337899     0.25500
C157        C  0.29991015  0.47811298  0.09283038    -0.40800
C158        C  0.28409516  0.48389958  0.11395418     0.32600
C159        C  0.19826966  0.48342837  0.03785583     0.01200
F160        F  0.23233445  0.47123810  0.99704812    -0.13100
F161        F  0.30044902  0.48788815  0.15218769    -0.13600
C162        C  0.18405181  0.51496960  0.04593343     0.16100
C163        C  0.15156884  0.51511357  0.03304434     0.25500
C164        C  0.13242235  0.48408081  0.01102546    -0.40700
C165        C  0.14626887  0.45404866  0.00030606     0.32500
C166        C  0.17899348  0.45348623  0.01402116     0.14200
F167        F  0.20180873  0.54534824  0.06718312    -0.13100
F168        F  0.12853225  0.42393027  0.97857311    -0.13600
F169        F  0.14381001  0.04751047  0.03939039    -0.15900
F170        F  0.19198786  0.42248464  0.00584896    -0.14500
F171        F  0.23671421  0.48901483  0.11753519    -0.14500
F172        F  0.29636987  0.46699936  0.03202989    -0.15900
C173        C  0.77889246  0.39353584  0.87424527     0.14200
C174        C  0.79319036  0.43025029  0.88615270     0.01100
C175        C  0.77821427  0.96405872  0.88287574     0.16100
C176        C  0.74587018  0.95957543  0.87051366     0.25500
C177        C  0.72805127  0.42083700  0.85968735    -0.40800
C178        C  0.74650946  0.38893190  0.86077780     0.32600
C179        C  0.82652744  0.43559077  0.89563939     0.01200
F180        F  0.79155742  0.99994570  0.89279257    -0.13100
F181        F  0.73311183  0.35337821  0.84847411    -0.13600
C182        C  0.83579709  0.42612129  0.86865482     0.16100
C183        C  0.86751847  0.42764297  0.87790707     0.25500
C184        C  0.89082377  0.43949850  0.91439821    -0.40700
C185        C  0.88120347  0.45046366  0.94102232     0.32500
C186        C  0.84928992  0.44845066  0.93165117     0.14200
F187        F  0.81662061  0.92165969  0.82883755    -0.13100
F188        F  0.90259414  0.46239399  0.97637522    -0.13600
F189        F  0.87517113  0.41716207  0.85088997    -0.15900
F190        F  0.84073369  0.45792113  0.95810860    -0.14500
F191        F  0.79629510  0.36229753  0.87492491    -0.14500
F192        F  0.72858316  0.99137432  0.86864757    -0.15900
C193        C  0.09153201  0.31759734  0.90197358     0.14200
C194        C  0.07565130  0.31069722  0.86270185     0.01100
C195        C  0.04584016  0.32727173  0.84027434     0.16100
C196        C  0.03182542  0.34985331  0.85675511     0.25500
C197        C  0.04751018  0.35677090  0.89622738    -0.40800
C198        C  0.07769083  0.34059351  0.91860101     0.32600
C199        C  0.09002283  0.28596935  0.84512801     0.01200
F200        F  0.03048246  0.32226868  0.80211814    -0.13100
F201        F  0.09363420  0.34637425  0.95661496    -0.13600
C202        C  0.07362609  0.25339095  0.82325781     0.16100
C203        C  0.08773177  0.22918272  0.80791232     0.25500
C204        C  0.11867362  0.23685198  0.81469630    -0.40700
C205        C  0.13464719  0.27010335  0.83563245     0.32500
C206        C  0.12034368  0.29457932  0.85045390     0.14200
F207        F  0.04435443  0.24421420  0.81785522    -0.13100
F208        F  0.16402248  0.27924598  0.84141288    -0.13600
F209        F  0.07163731  0.19730780  0.78792108    -0.15900
F210        F  0.13603969  0.32692499  0.86981195    -0.14500
F211        F  0.12023866  0.30139224  0.92437147    -0.14500
F212        F  0.00311010  0.36568776  0.83362706    -0.15900
C213        C  0.26442259  0.13762659  0.84900025     0.14200
C214        C  0.28305699  0.16882756  0.87104349     0.01100
C215        C  0.26837369  0.20130954  0.87673274     0.16100
C216        C  0.23545588  0.20357305  0.85899958     0.25500
C217        C  0.21655445  0.17338384  0.83492112    -0.40800
C218        C  0.23147073  0.13987101  0.83098995     0.32600
C219        C  0.31733024  0.16978860  0.88401587     0.01200
F220        F  0.28588777  0.23209442  0.89742108    -0.13100
F221        F  0.21427911  0.10946204  0.80920857    -0.13600
C222        C  0.32779336  0.16753278  0.85713800     0.16100
C223        C  0.35980109  0.17104280  0.86824354     0.25500
C224        C  0.38212684  0.17719834  0.90656490    -0.40700
C225        C  0.37167682  0.17943321  0.93358900     0.32500
C226        C  0.33945926  0.17558782  0.92236214     0.14200
F227        F  0.30681555  0.16317505  0.81976432    -0.13100
F228        F  0.39263475  0.18432045  0.97087360    -0.13600
F229        F  0.36879588  0.16940677  0.84114955    -0.15900
F230        F  0.32985739  0.17713949  0.94889205    -0.14500
F231        F  0.27820989  0.10544985  0.84395237    -0.14500
F232        F  0.22230615  0.23649115  0.86369681    -0.15900
C233        C  0.57977840  0.98120203  0.84595766     0.14200
C234        C  0.59574248  0.00766328  0.87586321     0.01100
C235        C  0.62880392  0.01032650  0.89305600     0.16100
C236        C  0.64563512  0.98742927  0.88027692     0.25500
C237        C  0.62970982  0.96132670  0.84958906    -0.40800
C238        C  0.59646142  0.95839411  0.83284861     0.32600
C239        C  0.57779493  0.03386117  0.88780623     0.01200
F240        F  0.64483274  0.03621722  0.92148785    -0.13100
F241        F  0.57980203  0.93360460  0.80363403    -0.13600
C242        C  0.58425334  0.03527303  0.92573740     0.16100
C243        C  0.56774380  0.06094203  0.93682571     0.25500
C244        C  0.54421780  0.08538401  0.91004870    -0.40700
C245        C  0.53766938  0.08357951  0.87203059     0.32500
C246        C  0.55444116  0.05835316  0.86116446     0.14200
F247        F  0.60626153  0.01138649  0.95196567    -0.13100
F248        F  0.51565959  0.10713341  0.84535906    -0.13600
F249        F  0.57437434  0.06129676  0.97359080    -0.15900
F250        F  0.54846562  0.05868998  0.82463879    -0.14500
F251        F  0.54784666  0.97739834  0.82937029    -0.14500
F252        F  0.67755140  0.99172772  0.89772981    -0.15900
C253        C  0.39952395  0.37501971  0.06576036     0.14200
C254        C  0.42818509  0.38701759  0.06804535     0.01100
C255        C  0.44261714  0.42158011  0.08746727     0.16100
C256        C  0.42828945  0.44409719  0.10388812     0.25500
C257        C  0.39915992  0.43249967  0.10084570    -0.40800
C258        C  0.38510835  0.39750019  0.08188271     0.32600
C259        C  0.44358954  0.36211746  0.05180777     0.01200
F260        F  0.47035868  0.43378291  0.09003576    -0.13100
F261        F  0.35773646  0.38436685  0.07974750    -0.13600
C262        C  0.42785056  0.35226093  0.01316722     0.16100
C263        C  0.44119449  0.32559666  0.99870036     0.25500
C264        C  0.47064651  0.30825579  0.02273931    -0.40700
C265        C  0.48673071  0.31944237  0.06130199     0.32500
C266        C  0.47326066  0.34590319  0.07555936     0.14200
F267        F  0.39939785  0.36836147  0.98947443    -0.13100
F268        F  0.51529266  0.30416354  0.08581755    -0.13600
F269        F  0.42512348  0.31673205  0.96125197    -0.15900
F270        F  0.48870220  0.35446384  0.11310672    -0.14500
F271        F  0.38588599  0.34083864  0.04873498    -0.14500
F272        F  0.44247141  0.47771272  0.12178491    -0.15900
C273        C  0.73966620  0.22055434  0.08200265     0.14200
C274        C  0.72277300  0.21675026  0.04255681     0.01100
C275        C  0.73906529  0.21060708  0.02217479     0.16100
C276        C  0.77221124  0.21001586  0.04110146     0.25500
C277        C  0.78931244  0.21536963  0.08070479    -0.40800
C278        C  0.77256823  0.21958180  0.10096567     0.32600
C279        C  0.68804975  0.21808257  0.02370941     0.01200
F280        F  0.72289648  0.20589470  0.98402122    -0.13100
F281        F  0.78796404  0.22201179  0.13931414    -0.13600
C282        C  0.67280578  0.25329391  0.02196161     0.16100
C283        C  0.64092911  0.25345381  0.01265361     0.25500
C284        C  0.62395192  0.21824684  0.00516903    -0.40700
C285        C  0.63885536  0.18332563  0.00426071     0.32500
C286        C  0.67068768  0.18334163  0.01350589     0.14200
F287        F  0.68925675  0.28728414  0.03095377    -0.13100
F288        F  0.62332838  0.14872949  0.99695761    -0.13600
F289        F  0.62690640  0.28790526  0.01171930    -0.15900
F290        F  0.68517148  0.14906913  0.01513145    -0.14500
F291        F  0.72410895  0.22480439  0.10223363    -0.14500
F292        F  0.78745141  0.20535415  0.02057110    -0.15900
C293        C  0.93841899  0.17515444  0.08346751     0.14200
C294        C  0.92934544  0.13719325  0.06953703     0.01100
C295        C  0.90215177  0.12066136  0.06803023     0.16100
C296        C  0.88395131  0.14192762  0.07984190     0.25500
C297        C  0.89275772  0.18006254  0.09351134    -0.40800
C298        C  0.92022906  0.19650992  0.09541416     0.32600
C299        C  0.94747722  0.11488083  0.05538187     0.01200
F300        F  0.89348777  0.08362289  0.05552226    -0.13100
F301        F  0.92892714  0.23358095  0.10777816    -0.13600
C302        C  0.97837621  0.10263004  0.08009747     0.16100
C303        C  0.99447481  0.07894644  0.06688465     0.25500
C304        C  0.97980686  0.06713676  0.02853947    -0.40700
C305        C  0.94903111  0.08065368  0.00374185     0.32500
C306        C  0.93311482  0.10418055  0.01713473     0.14200
F307        F  0.99254053  0.11253775  0.11731362    -0.13100
F308        F  0.93391937  0.07080328  0.96650114    -0.13600
F309        F  0.02416518  0.06717315  0.09190151    -0.15900
F310        F  0.90339877  0.11639006  0.99271337    -0.14500
F311        F  0.96442437  0.19176767  0.08462760    -0.14500
F312        F  0.85824088  0.12478517  0.07898808    -0.15900
C313        C  0.45415187  0.26960082  0.79006787     0.14200
C314        C  0.44163410  0.30622266  0.79003001     0.01100
C315        C  0.43907047  0.31835109  0.82161674     0.16100
C316        C  0.44754883  0.29322606  0.85231808     0.25500
C317        C  0.45824922  0.25522605  0.85147716    -0.40800
C318        C  0.46246586  0.24431417  0.82043603     0.32600
C319        C  0.42710777  0.32899435  0.75481511     0.01200
F320        F  0.42707110  0.35391400  0.82195742    -0.13100
F321        F  0.47380957  0.20871960  0.81873526    -0.13600
C322        C  0.39494247  0.32369668  0.72947558     0.16100
C323        C  0.38074227  0.34305389  0.69485835     0.25500
C324        C  0.39849449  0.36863180  0.68483656    -0.40700
C325        C  0.43112429  0.37334767  0.71043544     0.32500
C326        C  0.44524169  0.35359248  0.74511026     0.14200
F327        F  0.37731030  0.29907918  0.73812667    -0.13100
F328        F  0.44948966  0.39712587  0.70225276    -0.13600
F329        F  0.34957976  0.33617108  0.67121541    -0.15900
F330        F  0.47661835  0.35836631  0.76920669    -0.14500
F331        F  0.45676037  0.25755865  0.75964147    -0.14500
F332        F  0.44387269  0.30561087  0.88191583    -0.15900
C333        C  0.17795547  0.42988736  0.49572721     0.14200
C334        C  0.20036652  0.42523644  0.53402665     0.01100
C335        C  0.19051071  0.42568089  0.56149265     0.16100
C336        C  0.15863936  0.42993114  0.55090602     0.25500
C337        C  0.13580656  0.43390309  0.51241335    -0.40800
C338        C  0.14589209  0.43418512  0.48492205     0.32600
C339        C  0.23416207  0.41995653  0.54579487     0.01200
F340        F  0.21191189  0.42233372  0.59880509    -0.13100
F341        F  0.12407483  0.94713112  0.44898881    -0.13600
C342        C  0.25042050  0.96882336  0.54363831     0.16100
C343        C  0.28312528  0.96466142  0.55881459     0.25500
C344        C  0.30013305  0.41333254  0.57572053    -0.40700
C345        C  0.28252254  0.38286659  0.58006288     0.32500
C346        C  0.24989289  0.38630060  0.56540776     0.14200
F347        F  0.23588969  0.00040900  0.52208343    -0.13100
F348        F  0.29680829  0.34977290  0.59875217    -0.13600
F349        F  0.29909780  0.99246348  0.55094580    -0.15900
F350        F  0.23364641  0.35700404  0.57096251    -0.14500
F351        F  0.18734653  0.94391508  0.47326615    -0.14500
F352        F  0.15031706  0.43029215  0.57860983    -0.15900
C353        C  0.08101994  0.08004740  0.59423866     0.14200
C354        C  0.07035175  0.07428236  0.62062861     0.01100
C355        C  0.04962034  0.04337872  0.61556650     0.16100
C356        C  0.04132785  0.01698095  0.58590795     0.25500
C357        C  0.05368773  0.02113883  0.56079453    -0.40800
C358        C  0.07272413  0.05378283  0.56448255     0.32600
C359        C  0.08422653  0.09723652  0.65591708     0.01200
F360        F  0.03839388  0.03798211  0.64028233    -0.13100
F361        F  0.08520850  0.05893124  0.54099624    -0.13600
C362        C  0.08063049  0.13780787  0.65518506     0.16100
C363        C  0.09618338  0.15937641  0.68870796     0.25500
C364        C  0.11579546  0.14058889  0.72311153    -0.40700
C365        C  0.11923905  0.10006389  0.72378892     0.32500
C366        C  0.10338233  0.07851018  0.69049097     0.14200
F367        F  0.06243096  0.15645400  0.62199459    -0.13100
F368        F  0.13796140  0.08135057  0.75677637    -0.13600
F369        F  0.09327624  0.19868745  0.68735616    -0.15900
F370        F  0.10764794  0.03941140  0.69173418    -0.14500
F371        F  0.10136198  0.10954445  0.59888459    -0.14500
F372        F  0.02188181  0.98680434  0.58242630    -0.15900
C373        C  0.88633087  0.29609182  0.24174290     0.14200
C374        C  0.91692409  0.31097662  0.25428260     0.01100
C375        C  0.93286366  0.30203228  0.23391540     0.16100
C376        C  0.91808135  0.27982438  0.20083211     0.25500
C377        C  0.88717437  0.26540088  0.18776913    -0.40800
C378        C  0.87168555  0.27332365  0.20902192     0.32600
C379        C  0.93124906  0.33801324  0.28693959     0.01200
F380        F  0.96278514  0.31512222  0.24593295    -0.13100
F381        F  0.84234185  0.25901229  0.19837678    -0.13600
C382        C  0.93348600  0.32799071  0.32193447     0.16100
C383        C  0.94466807  0.35503538  0.35157763     0.25500
C384        C  0.95435479  0.39248043  0.34690788    -0.40700
C385        C  0.95353880  0.40153193  0.31235306     0.32500
C386        C  0.94162061  0.37489764  0.28260107     0.14200
F387        F  0.92470790  0.29201504  0.32736728    -0.13100
F388        F  0.96409306  0.43637042  0.30698791    -0.13600
F389        F  0.94527349  0.34470183  0.38440951    -0.15900
F390        F  0.93920076  0.38580940  0.24895658    -0.14500
F391        F  0.87010967  0.30465651  0.26046911    -0.14500
F392        F  0.93382002  0.27350685  0.18111296    -0.15900
C393        C  0.77691371  0.50040363  0.33922778     0.14200
C394        C  0.79660386  0.49578298  0.37837442     0.01100
C395        C  0.78294498  0.49263224  0.40212197     0.16100
C396        C  0.75007041  0.49417405  0.38692250     0.25500
C397        C  0.73038091  0.49934657  0.34775111    -0.40800
C398        C  0.74419871  0.50246706  0.32409033     0.32600
C399        C  0.83129916  0.49404270  0.39391107     0.01200
F400        F  0.80148264  0.48893868  0.44012442    -0.13100
F401        F  0.72604263  0.50650253  0.28604257    -0.13600
C402        C  0.84702751  0.52389831  0.38584620     0.16100
C403        C  0.87894972  0.52031262  0.39621314     0.25500
C404        C  0.89598989  0.48682012  0.41524905    -0.40700
C405        C  0.88063759  0.45804187  0.42547480     0.32500
C406        C  0.84850526  0.46152370  0.41460913     0.14200
F407        F  0.83122548  0.55633524  0.36715124    -0.13100
F408        F  0.89613783  0.42548482  0.44416631    -0.13600
F409        F  0.89298763  0.54953331  0.38703340    -0.15900
F410        F  0.83379973  0.43207323  0.42247956    -0.14500
F411        F  0.78937089  0.50215226  0.31542932    -0.14500
F412        F  0.73761886  0.49176968  0.41067489    -0.15900
C413        C  0.57690662  0.06692723  0.20084522     0.14200
C414        C  0.59087209  0.07333224  0.17777599     0.01100
C415        C  0.63004402  0.59566232  0.20362627     0.16100
C416        C  0.64572662  0.57485302  0.23727258     0.25500
C417        C  0.62911247  0.54848078  0.24826795    -0.40800
C418        C  0.59318096  0.04607445  0.23473455     0.32600
C419        C  0.57540183  0.09748459  0.14329428     0.01200
F420        F  0.64689188  0.62008173  0.19357317    -0.13100
F421        F  0.57943643  0.04108259  0.25690412    -0.13600
C422        C  0.57070987  0.13733269  0.14605261     0.16100
C423        C  0.56163459  0.16161046  0.11467701     0.25500
C424        C  0.55731815  0.14641788  0.07992693    -0.40700
C425        C  0.56021167  0.10590861  0.07686879     0.32500
C426        C  0.56915938  0.08181375  0.10824908     0.14200
F427        F  0.57663263  0.15312927  0.17971235    -0.13100
F428        F  0.55567852  0.08953539  0.04398859    -0.13600
F429        F  0.55770723  0.20008410  0.11871115    -0.15900
F430        F  0.57291638  0.04316094  0.10483250    -0.14500
F431        F  0.54769674  0.08113985  0.19070290    -0.14500
F432        F  0.67733483  0.58079450  0.25890247    -0.15900
C433        C  0.11794846  0.28392429  0.15891198     0.14200
C434        C  0.09467012  0.30932531  0.15735025     0.01100
C435        C  0.08578560  0.30781861  0.18573401     0.16100
C436        C  0.10048491  0.28163249  0.21576097     0.25500
C437        C  0.12468057  0.25725726  0.21807935    -0.40800
C438        C  0.13305684  0.25831355  0.18922578     0.32600
C439        C  0.08225484  0.33985570  0.12815885     0.01200
F440        F  0.06355235  0.33248492  0.18487685    -0.13100
F441        F  0.15619524  0.23488845  0.19066134    -0.13600
C442        C  0.06462116  0.33008436  0.08967317     0.16100
C443        C  0.05628758  0.35880272  0.06193387     0.25500
C444        C  0.06550478  0.39775652  0.07239745    -0.40700
C445        C  0.08233436  0.40749776  0.11115858     0.32500
C446        C  0.09065073  0.37875995  0.13871918     0.14200
F447        F  0.05575205  0.29264358  0.07905238    -0.13100
F448        F  0.09202124  0.44459288  0.12250829    -0.13600
F449        F  0.03904330  0.34853304  0.02493506    -0.15900
F450        F  0.10823680  0.38863695  0.17579746    -0.14500
F451        F  0.12714566  0.28535092  0.13200311    -0.14500
F452        F  0.09244835  0.28177394  0.24370032    -0.15900
C453        C  0.09434931  0.08709146  0.39606291     0.14200
C454        C  0.08010688  0.09414890  0.35704863     0.01100
C455        C  0.04998283  0.07868588  0.33302312     0.16100
C456        C  0.03396968  0.05715410  0.34793659     0.25500
C457        C  0.04795266  0.05059441  0.38729389    -0.40800
C458        C  0.07858348  0.06546129  0.41107318     0.32600
C459        C  0.09647914  0.11856488  0.34175773     0.01200
F460        F  0.03618806  0.08417871  0.29501669    -0.13100
F461        F  0.09338470  0.05960860  0.44907224    -0.13600
C462        C  0.12677407  0.10847963  0.34804645     0.16100
C463        C  0.14277829  0.13237026  0.33487820     0.25500
C464        C  0.12848708  0.16655037  0.31455825    -0.40700
C465        C  0.09820300  0.17671864  0.30861333     0.32500
C466        C  0.08238851  0.15293017  0.32215261     0.14200
F467        F  0.14068132  0.07509342  0.36648102    -0.13100
F468        F  0.08417747  0.21021128  0.29059428    -0.13600
F469        F  0.17194444  0.12139902  0.34129742    -0.15900
F470        F  0.05357673  0.16394131  0.31693246    -0.14500
F471        F  0.12333854  0.10207572  0.41989425    -0.14500
F472        F  0.00488353  0.04270321  0.32369997    -0.15900
C473        C  0.34067822  0.25367816  0.36559929     0.14200
C474        C  0.32720814  0.22111450  0.37325453     0.01100
C475        C  0.34675909  0.19256130  0.39841561     0.16100
C476        C  0.37958138  0.19583465  0.41478012     0.25500
C477        C  0.39322521  0.22772570  0.40599060    -0.40800
C478        C  0.37341843  0.25709216  0.38190093     0.32600
C479        C  0.29266264  0.21691675  0.35460221     0.01200
F480        F  0.33398163  0.16076379  0.40591472    -0.13100
F481        F  0.38568228  0.28903129  0.37382907    -0.13600
C482        C  0.27524597  0.21240094  0.31514732     0.16100
C483        C  0.24230965  0.20995417  0.29725363     0.25500
C484        C  0.22649588  0.21184758  0.31870539    -0.40700
C485        C  0.24405150  0.21593667  0.35825366     0.32500
C486        C  0.27695494  0.21851530  0.37606808     0.14200
F487        F  0.29021611  0.21025685  0.29407577    -0.13100
F488        F  0.22927573  0.21921616  0.37945160    -0.13600
F489        F  0.22591088  0.20519741  0.25910340    -0.15900
F490        F  0.29348170  0.22390737  0.41412353    -0.14500
F491        F  0.32202252  0.28208118  0.34211410    -0.14500
F492        F  0.39782320  0.16684849  0.43764450    -0.15900
C493        C  0.58740266  0.33208050  0.61024350     0.14200
C494        C  0.58302348  0.32151430  0.64106958     0.01100
C495        C  0.56636079  0.28718866  0.63879788     0.16100
C496        C  0.55541843  0.26301892  0.60705225     0.25500
C497        C  0.56135880  0.27227512  0.57695152    -0.40800
C498        C  0.57692976  0.30764370  0.57863968     0.32600
C499        C  0.59832179  0.34404871  0.67696602     0.01200
F500        F  0.56223471  0.27579914  0.66835379    -0.13100
F501        F  0.58354292  0.31784275  0.55069024    -0.13600
C502        C  0.58077390  0.35740514  0.69410235     0.16100
C503        C  0.59593612  0.37528298  0.72977129     0.25500
C504        C  0.62910184  0.38043222  0.74904884    -0.40700
C505        C  0.64639498  0.36797409  0.73101562     0.32500
C506        C  0.63119409  0.34987463  0.69563076     0.14200
F507        F  0.54885362  0.35298474  0.67630861    -0.13100
F508        F  0.67821894  0.37291594  0.74747975    -0.13600
F509        F  0.57800869  0.38687975  0.74546959    -0.15900
F510        F  0.64893153  0.33670180  0.68019448    -0.14500
F511        F  0.60267311  0.36565368  0.61121725    -0.14500
F512        F  0.53990714  0.22982867  0.60655589    -0.15900
C513        C  0.46226701  0.13546959  0.29213991     0.14200
C514        C  0.45215929  0.09803372  0.29502982     0.01100
C515        C  0.45226424  0.08685328  0.32848756     0.16100
C516        C  0.46099828  0.11340377  0.35822207     0.25500
C517        C  0.46972513  0.15187959  0.35488769    -0.40800
C518        C  0.47118070  0.16211579  0.32178808     0.32600
C519        C  0.43704999  0.07276707  0.26132474     0.01200
F520        F  0.44227447  0.05073023  0.33152048    -0.13100
F521        F  0.48030569  0.19827499  0.31737818    -0.13600
C522        C  0.45378503  0.04297914  0.25510477     0.16100
C523        C  0.43831677  0.01814068  0.22374861     0.25500
C524        C  0.40096601  0.52399122  0.19741810    -0.40700
C525        C  0.38407369  0.54716413  0.21057256     0.32500
C526        C  0.39987223  0.56758693  0.24462495     0.14200
F527        F  0.48497772  0.03772800  0.27963146    -0.13100
F528        F  0.35212837  0.55060776  0.19057198    -0.13600
F529        F  0.45514016  0.98921983  0.21898607    -0.15900
F530        F  0.38286028  0.58975210  0.25615321    -0.14500
F531        F  0.46222932  0.14672029  0.25985489    -0.14500
F532        F  0.45947526  0.10174107  0.38945184    -0.15900
C533        C  0.43217447  0.05811169  0.50760976     0.14200
C534        C  0.44706018  0.04483003  0.54519732     0.01100
C535        C  0.47755779  0.05814653  0.57043032     0.16100
C536        C  0.49284879  0.08485816  0.55862589     0.25500
C537        C  0.47797121  0.09884108  0.52097625    -0.40800
C538        C  0.44749645  0.08466846  0.49549836     0.32600
C539        C  0.43015972  0.01912304  0.55900372     0.01200
F540        F  0.49209402  0.04644689  0.60712986    -0.13100
F541        F  0.43239574  0.09639610  0.45884194    -0.13600
C542        C  0.44203330  0.98213477  0.57387064     0.16100
C543        C  0.42678182  0.95895301  0.58880732     0.25500
C544        C  0.39939135  0.97246705  0.58902642    -0.40700
C545        C  0.38768262  0.00958261  0.57416272     0.32500
C546        C  0.40291124  0.03260825  0.55931721     0.14200
F547        F  0.46823804  0.96838805  0.57357728    -0.13100
F548        F  0.36204035  0.02427975  0.57516923    -0.13600
F549        F  0.44326900  0.41512036  0.61032507    -0.15900
F550        F  0.39161894  0.06874160  0.54634059    -0.14500
F551        F  0.40269106  0.04537748  0.48263041    -0.14500
F552        F  0.52191662  0.09780121  0.58468669    -0.15900
C553        C  0.63176325  0.40191683  0.38270413     0.14200
C554        C  0.60106553  0.41079234  0.37566855     0.01100
C555        C  0.58619888  0.44437398  0.35479742     0.16100
C556        C  0.60153662  0.46813845  0.34040382     0.25500
C557        C  0.63219530  0.45890905  0.34694728    -0.40800
C558        C  0.64724784  0.42572755  0.36877964     0.32600
C559        C  0.58408586  0.38339431  0.38805000     0.01200
F560        F  0.55678988  0.45414966  0.34835379    -0.13100
F561        F  0.67657683  0.41514252  0.37552000    -0.13600
C562        C  0.59727265  0.37212689  0.42617826     0.16100
C563        C  0.58264363  0.34347338  0.43713214     0.25500
C564        C  0.55429639  0.32563253  0.41010713    -0.40700
C565        C  0.54102813  0.33749118  0.37191385     0.32500
C566        C  0.55574940  0.36601880  0.36113728     0.14200
F567        F  0.62443076  0.38892401  0.45287997    -0.13100
F568        F  0.51414145  0.32085762  0.34448731    -0.13600
F569        F  0.59633023  0.33334382  0.47422177    -0.15900
F570        F  0.54288034  0.37559056  0.32396568    -0.14500
F571        F  0.64633409  0.36907193  0.40175621    -0.14500
F572        F  0.58644097  0.50030072  0.32038856    -0.15900
C573        C  0.75352475  0.25248807  0.56784103     0.14200
C574        C  0.73654559  0.22121633  0.57148923     0.01100
C575        C  0.75238821  0.18810751  0.59181790     0.16100
C576        C  0.78507971  0.18606848  0.60865402     0.25500
C577        C  0.80252908  0.21727863  0.60538423    -0.40800
C578        C  0.78647539  0.25055389  0.58468982     0.32600
C579        C  0.70221519  0.22249643  0.55512813     0.01200
F580        F  0.73598223  0.15750491  0.59503743    -0.13100
F581        F  0.80262916  0.28139571  0.58144091    -0.13600
C582        C  0.68276207  0.21347943  0.51680513     0.16100
C583        C  0.65043408  0.20745206  0.50294748     0.25500
C584        C  0.63755403  0.20999097  0.52755732    -0.40700
C585        C  0.65708328  0.22017982  0.56570412     0.32500
C586        C  0.68921241  0.22655318  0.57932000     0.14200
F587        F  0.69537945  0.20859077  0.49343939    -0.13100
F588        F  0.64505149  0.22408862  0.58978341    -0.13600
F589        F  0.63205772  0.19729066  0.46608534    -0.15900
F590        F  0.70795969  0.23538946  0.61646062    -0.14500
F591        F  0.73823933  0.28490164  0.54854886    -0.14500
F592        F  0.79943782  0.15294710  0.62715417    -0.15900
C593        C  0.95640121  0.04848280  0.79271774     0.14200
C594        C  0.94541186  0.08484791  0.79671850     0.01100
C595        C  0.94502873  0.09413707  0.83030483     0.16100
C596        C  0.95438052  0.06659031  0.85919717     0.25500
C597        C  0.96414274  0.02923794  0.85467756    -0.40800
C598        C  0.96586965  0.02092763  0.82147626     0.32600
C599        C  0.93066363  0.11095403  0.76398097     0.01200
F600        F  0.93402805  0.12916691  0.83423698    -0.13100
F601        F  0.97626347  0.98591959  0.81645942    -0.13600
C602        C  0.90005913  0.10249203  0.73509576     0.16100
C603        C  0.88549252  0.12657110  0.70361704     0.25500
C604        C  0.90129843  0.15970151  0.70057218    -0.40700
C605        C  0.93225780  0.16784870  0.72932382     0.32500
C606        C  0.94681299  0.14361837  0.76103856     0.14200
F607        F  0.88421243  0.07088535  0.73757360    -0.13100
F608        F  0.94798966  0.19974994  0.72725401    -0.13600
F609        F  0.85612025  0.11694898  0.67572818    -0.15900
F610        F  0.97655330  0.15191901  0.78882457    -0.14500
F611        F  0.95693230  0.03927109  0.76029659    -0.14500
F612        F  0.95226217  0.07588162  0.89060850    -0.15900
C613        C  0.93621243  0.23592138  0.57499374     0.14200
C614        C  0.92872665  0.27376252  0.56035025     0.01100
C615        C  0.90646880  0.29556486  0.56533228     0.16100
C616        C  0.89193409  0.27979810  0.58483804     0.25500
C617        C  0.89989531  0.24225163  0.60023413    -0.40800
C618        C  0.92199965  0.22030374  0.59502495     0.32600
C619        C  0.94580974  0.29207151  0.54257899     0.01200
F620        F  0.89965865  0.33268777  0.55245536    -0.13100
F621        F  0.92913922  0.18338699  0.60835819    -0.13600
C622        C  0.92913581  0.30824369  0.50627217     0.16100
C623        C  0.94470805  0.33184451  0.49233576     0.25500
C624        C  0.97729511  0.33972466  0.51470601    -0.40700
C625        C  0.99431886  0.32066274  0.54989474     0.32500
C626        C  0.97861895  0.29726172  0.56370107     0.14200
F627        F  0.89749546  0.30232459  0.48491983    -0.13100
F628        F  0.02591771  0.32615792  0.57215594    -0.13600
F629        F  0.92758620  0.34786516  0.45749587    -0.15900
F630        F  0.99518633  0.28189920  0.59895254    -0.14500
F631        F  0.95717516  0.21413605  0.56973022    -0.14500
F632        F  0.87079038  0.30169920  0.58966525    -0.15900
C633        C  0.89075427  0.67009118  0.66787538     0.81700
N634        N  0.85890669  0.67302507  0.65182592    -0.76600
C635        C  0.84223563  0.69532127  0.62082707     0.84200
N636        N  0.85791557  0.71493093  0.60582755    -0.76500
C637        C  0.88982417  0.71231407  0.62149739     0.84300
N638        N  0.90631984  0.68980750  0.65265888    -0.78200
O639        O  0.51375852  0.77444747  0.40297643    -0.79400
O640        O  0.48289565  0.63996494  0.48867135    -0.64100
O641        O  0.50498153  0.73540981  0.45901990    -1.10700
C642        C  0.60799731  0.69119009  0.51798106     1.07500
O643        O  0.52824468  0.62829598  0.54084399    -0.77300
O644        O  0.55327985  0.70113910  0.55729457    -0.60500
Ni645      Ni  0.47938338  0.75205813  0.40764256     1.34900
C646        C  0.56002639  0.73534958  0.55164289     0.86200
O647        O  0.45196434  0.70505472  0.45969268    -0.77800
O648        O  0.44079633  0.73432089  0.40535236    -0.88100
C649        C  0.49894698  0.62176190  0.51943684     0.85800
O650        O  0.48453887  0.70485183  0.38680097    -0.66300
O651        O  0.60007910  0.67798941  0.54167266    -0.85600
C652        C  0.47902160  0.67058097  0.39372613     0.86700
C653        C  0.43264983  0.72105961  0.42877502     1.08200
H654        H  0.53515038  0.65113237  0.46953784     0.40000
O655        O  0.53541993  0.67140188  0.48626503    -1.08200
O656        O  0.56205810  0.74424276  0.52212839    -0.64900
Ni657      Ni  0.54687443  0.71966731  0.47266322     1.26300
O658        O  0.47806813  0.66208483  0.42397035    -0.65100
O659        O  0.58793088  0.70226746  0.48526442    -0.77400
C660        C  0.54210155  0.78364168  0.42608601     0.86000
O661        O  0.55729457  0.76772345  0.45816806    -0.64600
Ni662      Ni  0.56187676  0.65525062  0.53767606     1.27400
Ni663      Ni  0.49334733  0.68739693  0.47292772     1.26100
H664        H  0.50521362  0.75581066  0.47562427     0.40600
C665        C  0.14870529  0.74237949  0.26214280     0.81700
N666        N  0.13300747  0.71871445  0.27457254    -0.76600
C667        C  0.14925097  0.69545587  0.30525731     0.84200
N668        N  0.18135625  0.69632276  0.32374314    -0.76500
C669        C  0.19718384  0.71978634  0.31157866     0.84300
N670        N  0.18079871  0.74252898  0.28083622    -0.78200
C671        C  0.64283913  0.01328385  0.28353264     0.81700
N672        N  0.62891574  0.99270215  0.30024763    -0.76600
C673        C  0.64685630  0.97509953  0.33420512     0.84200
N674        N  0.67887808  0.97827997  0.35129999    -0.76500
C675        C  0.69306659  0.99887917  0.33496490     0.84300
N676        N  0.67482643  0.01619997  0.30112367    -0.78200
O677        O  0.00298751  0.01618844  0.38238604    -0.79400
O678        O  0.97524259  0.89293289  0.47525884    -0.64100
O679        O  0.99578882  0.98778015  0.44371874    -1.10700
C680        C  0.09924970  0.94663313  0.50112597     1.07500
O681        O  0.02197876  0.88109491  0.52542965    -0.77300
O682        O  0.04349661  0.95570637  0.53991740    -0.64900
Ni683      Ni  0.96930372  0.00911022  0.39490929     1.34900
C684        C  0.05193962  0.48258150  0.53425727     0.86200
O685        O  0.94316490  0.95783973  0.44587968    -0.77800
O686        O  0.93341495  0.00502596  0.40311225    -0.88100
C687        C  0.99265769  0.87409872  0.50522615     0.85800
O688        O  0.95838550  0.96161755  0.36726366    -0.66300
O689        O  0.09133739  0.93504180  0.52528017    -0.85600
C690        C  0.95900356  0.92610316  0.37605995     0.86700
C691        C  0.92542986  0.98400596  0.42321556     1.08200
H692        H  0.02631894  0.90405515  0.45401550     0.40000
O693        O  0.02680667  0.92460586  0.47055931    -1.08200
O694        O  0.05655745  0.49111043  0.50640649    -0.64900
Ni695      Ni  0.03721884  0.97264864  0.45565026     1.26300
O696        O  0.96868213  0.91497580  0.40994160    -0.65100
O697        O  0.07878770  0.95639644  0.46797843    -0.77400
C698        C  0.03713768  0.52455032  0.40659812     0.86000
O699        O  0.05147302  0.51421348  0.44096628    -0.64600
Ni700      Ni  0.05426327  0.91017968  0.52194906     1.27400
Ni701      Ni  0.98470901  0.94031461  0.45839066     1.26100
H702        H  0.00141760  0.50426592  0.46211064     0.40600
C703        C  0.38228568  0.90371267  0.64834230     0.81700
N704        N  0.35024850  0.90633276  0.63117520    -0.76600
C705        C  0.33408543  0.92943679  0.60052702     0.84200
N706        N  0.35227117  0.43525954  0.58532953    -0.76500
C707        C  0.38433127  0.43616518  0.60563769     0.84300
N708        N  0.39943224  0.41400660  0.63734496    -0.78200
C709        C  0.86900404  0.74634187  0.15057492     0.81700
N710        N  0.83703843  0.74353083  0.13087176    -0.76600
C711        C  0.82222942  0.72200986  0.09882018     0.84200
N712        N  0.83979248  0.70278903  0.08621115    -0.76500
C713        C  0.87184776  0.70538393  0.10531336     0.84300
N714        N  0.88640411  0.72720358  0.13744520    -0.78200
O715        O  0.51116604  0.76508327  0.02353237    -0.79400
O716        O  0.53681968  0.62615920  0.95119152    -0.64100
O717        O  0.51716174  0.72926325  0.96537658    -1.10700
C718        C  0.41360880  0.68470533  0.90854102     1.07500
O719        O  0.49772584  0.62419833  0.89207454    -0.77300
O720        O  0.46818931  0.69333545  0.86986326    -0.64900
Ni721      Ni  0.54385502  0.75691652  0.01028680     1.34900
C722        C  0.46307755  0.72857647  0.87448522     0.86200
O723        O  0.57173686  0.69008331  0.97690159    -0.77800
O724        O  0.57857293  0.75061898  0.00041956    -0.88100
C725        C  0.52383864  0.61135177  0.91833410     0.85800
O726        O  0.55821779  0.71438935  0.04491632    -0.66300
O727        O  0.42263049  0.66750436  0.88740279    -0.85600
C728        C  0.55141178  0.67842414  0.04145256     0.86700
C729        C  0.58837610  0.72067572  0.99060380     1.08200
H730        H  0.48272828  0.64824213  0.95891596     0.40000
O731        O  0.48488052  0.66681243  0.94243427    -1.08200
O732        O  0.46066984  0.73961955  0.90318940    -0.64900
Ni733      Ni  0.47472421  0.71712733  0.95301498     1.26300
O734        O  0.53732731  0.66159567  0.00942044    -0.65100
O735        O  0.43246357  0.70228278  0.93902161    -0.77400
C736        C  0.48301881  0.77685752  0.00311710     0.86000
O737        O  0.46718786  0.76680448  0.96855488    -0.64600
Ni738      Ni  0.46161986  0.64788435  0.89219031     1.27400
Ni739      Ni  0.52821425  0.67791062  0.95958884     1.26100
H740        H  0.51700800  0.74443753  0.94513209     0.40600
C741        C  0.12878860  0.66173146  0.75490178     0.81700
N742        N  0.11409942  0.68796080  0.76632765    -0.76600
C743        C  0.13152000  0.71220413  0.79595030     0.84200
N744        N  0.16353338  0.71005304  0.81363875    -0.76500
C745        C  0.17840621  0.68427399  0.80229703     0.84300
N746        N  0.16081663  0.66015718  0.77295611    -0.78200
C747        C  0.64894494  0.89521630  0.78973680     0.81700
N748        N  0.63235413  0.91586324  0.80308187    -0.76600
C749        C  0.64480531  0.43406738  0.83720826     0.84200
N750        N  0.67688405  0.43470338  0.85588796    -0.76500
C751        C  0.69652039  0.91921638  0.83998981     0.84300
N752        N  0.68096262  0.89714219  0.80845906    -0.78200
C753        C  0.38820279  0.99520024  0.16617766     0.81700
N754        N  0.40350849  0.97015178  0.15438589    -0.76600
C755        C  0.38675173  0.94545023  0.12482897     0.84200
N756        N  0.35467748  0.94639805  0.10694118    -0.76500
C757        C  0.33928204  0.97094649  0.11856825     0.84300
N758        N  0.35612625  0.99500721  0.14815965    -0.78200
O759        O  0.02316125  0.02711271  0.03756953    -0.79400
O760        O  0.04956231  0.89641652  0.94736323    -0.64100
O761        O  0.03254660  0.99366231  0.97943920    -1.10700
C762        C  0.92730628  0.94486290  0.92031210     1.07500
O763        O  0.00923911  0.90488482  0.89031346    -0.77300
O764        O  0.96901642  0.96337090  0.87293355    -0.64900
Ni765      Ni  0.05823635  0.01267630  0.02976614     1.34900
C766        C  0.97001640  0.49080237  0.88775714     0.86200
O767        O  0.08536990  0.95801032  0.98142472    -0.77800
O768        O  0.09621525  0.00179129  0.02732500    -0.88100
C769        C  0.03529846  0.88864136  0.91226239     0.85800
O770        O  0.06102877  0.96485360  0.05485761    -0.66300
O771        O  0.93582561  0.92356780  0.90099568    -0.85600
C772        C  0.05964957  0.92944466  0.04531187     0.86700
C773        C  0.10433010  0.98065078  0.00751775     1.08200
H774        H  0.99780834  0.91334665  0.96498084     0.40000
O775        O  0.99907413  0.93310686  0.94877967    -1.08200
O776        O  0.96850992  0.49832324  0.91776906    -0.64900
Ni777      Ni  0.98929845  0.98154771  0.96332947     1.26300
O778        O  0.05379991  0.91895412  0.01227244    -0.65100
O779        O  0.94596250  0.96795609  0.94635975    -0.77400
C780        C  0.99102664  0.53528549  0.01522922     0.86000
O781        O  0.97536397  0.51977997  0.98294689    -0.64600
Ni782      Ni  0.97378506  0.91520037  0.89811329     1.27400
Ni783      Ni  0.04229879  0.94486658  0.96499139     1.26100
H784        H  0.02501784  0.51118489  0.96016163     0.40600
C785        C  0.25568339  0.97953227  0.10174040     0.14200
C786        C  0.23822402  0.97697945  0.06212329     0.01100
C787        C  0.25400011  0.97120584  0.04105063     0.16100
C788        C  0.28697815  0.96853736  0.05942605     0.25500
C789        C  0.30451389  0.97192706  0.09908597    -0.40800
C790        C  0.28857282  0.97718470  0.12008575     0.32600
C791        C  0.20350317  0.97985957  0.04326109     0.01200
F792        F  0.23749582  0.96905911  0.00269233    -0.13100
F793        F  0.30479788  0.97913853  0.15847505    -0.13600
C794        C  0.18928421  0.01357750  0.04758645     0.16100
C795        C  0.15673057  0.01456912  0.03426996     0.25500
C796        C  0.13784779  0.98169173  0.01647632    -0.40700
C797        C  0.15199458  0.94874793  0.01017574     0.32500
C798        C  0.18460716  0.94786849  0.02356446     0.14200
F799        F  0.20714041  0.04522608  0.06562331    -0.13100
F800        F  0.13469157  0.91644041  0.99321836    -0.13600
F801        F  0.13895556  0.54542540  0.04273898    -0.15900
F802        F  0.19800335  0.91491071  0.01932188    -0.14500
F803        F  0.24075207  0.98368801  0.12269452    -0.14500
F804        F  0.30179175  0.96401217  0.03838748    -0.15900
C805        C  0.78189706  0.89541902  0.87170465     0.14200
C806        C  0.79627588  0.93209801  0.88300900     0.01100
C807        C  0.77500600  0.46188449  0.88645747     0.16100
C808        C  0.74263760  0.45712376  0.87359244     0.25500
C809        C  0.73119731  0.92307862  0.85786017    -0.40800
C810        C  0.74962817  0.89091044  0.85922849     0.32600
C811        C  0.82967418  0.93712206  0.89266849     0.01200
F812        F  0.78819233  0.49777326  0.89715770    -0.13100
F813        F  0.73633510  0.85511729  0.84817138    -0.13600
C814        C  0.83866901  0.93056937  0.86489945     0.16100
C815        C  0.87034787  0.93332986  0.87394221     0.25500
C816        C  0.89373763  0.94278059  0.91107715    -0.40700
C817        C  0.88456914  0.94999008  0.93876843     0.32500
C818        C  0.85270984  0.94718916  0.92955922     0.14200
F819        F  0.81395532  0.41521880  0.83310213    -0.13100
F820        F  0.90649166  0.95838078  0.97499466    -0.13600
F821        F  0.87800295  0.92730478  0.84607776    -0.15900
F822        F  0.84442040  0.95312407  0.95686980    -0.14500
F823        F  0.79911033  0.86408189  0.87213795    -0.14500
F824        F  0.72521275  0.48854942  0.87235153    -0.15900
C825        C  0.09243526  0.82084877  0.90107017     0.14200
C826        C  0.07630234  0.81401504  0.86181760     0.01100
C827        C  0.04681161  0.83133975  0.83952193     0.16100
C828        C  0.03342505  0.85493511  0.85601984     0.25500
C829        C  0.04951457  0.86230092  0.89542578    -0.40800
C830        C  0.07916597  0.84470422  0.91779545     0.32600
C831        C  0.08996819  0.78865182  0.84390803     0.01200
F832        F  0.03110559  0.82595504  0.80142076    -0.13100
F833        F  0.09532514  0.85026551  0.95582770    -0.13600
C834        C  0.07305089  0.75609123  0.82257568     0.16100
C835        C  0.08596389  0.73194869  0.80574062     0.25500
C836        C  0.11624619  0.73973777  0.81030125    -0.40700
C837        C  0.13273777  0.77307663  0.83088332     0.32500
C838        C  0.11968600  0.79725324  0.84746754     0.14200
F839        F  0.04432208  0.74702865  0.81894320    -0.13100
F840        F  0.16142070  0.78269766  0.83471088    -0.13600
F841        F  0.06927176  0.70016940  0.78627960    -0.15900
F842        F  0.13593084  0.82942222  0.86663785    -0.14500
F843        F  0.12086011  0.80390960  0.92330626    -0.14500
F844        F  0.00460403  0.87055685  0.83299908    -0.15900
C845        C  0.26181799  0.64957703  0.83350326     0.14200
C846        C  0.27981927  0.68095950  0.85571222     0.01100
C847        C  0.26471222  0.71292978  0.86136035     0.16100
C848        C  0.23179990  0.71394218  0.84436358     0.25500
C849        C  0.21340244  0.68273437  0.82145548    -0.40800
C850        C  0.22892082  0.65035207  0.81651051     0.32600
C851        C  0.31412621  0.68190855  0.86997024     0.01200
F852        F  0.28182073  0.74401456  0.88191487    -0.13100
F853        F  0.21244602  0.61936811  0.79513234    -0.13600
C854        C  0.32557150  0.68232058  0.84402192     0.16100
C855        C  0.35791567  0.68356123  0.85675209     0.25500
C856        C  0.37947357  0.68462664  0.89580790    -0.40700
C857        C  0.36797961  0.68445642  0.92189959     0.32500
C858        C  0.33539985  0.68312641  0.90897880     0.14200
F859        F  0.30528233  0.68221700  0.80618645    -0.13100
F860        F  0.38819871  0.68427407  0.95973815    -0.13600
F861        F  0.36808606  0.68445185  0.83070260    -0.15900
F862        F  0.32459039  0.68226763  0.93441180    -0.14500
F863        F  0.27619605  0.61834638  0.82785768    -0.14500
F864        F  0.21812837  0.74627099  0.84922817    -0.15900
C865        C  0.57799195  0.46786438  0.85434560     0.14200
C866        C  0.59247199  0.49868005  0.87999501     0.01100
C867        C  0.62470288  0.50646424  0.89326642     0.16100
C868        C  0.64193048  0.48458311  0.88044806     0.25500
C869        C  0.62708456  0.45495541  0.85319995    -0.40800
C870        C  0.59498023  0.44651827  0.84073662     0.32600
C871        C  0.57353297  0.52466058  0.89054246     0.01200
F872        F  0.63926296  0.53665495  0.91722729    -0.13100
F873        F  0.57987006  0.41759727  0.81537317    -0.13600
C874        C  0.58373653  0.53429526  0.92860967     0.16100
C875        C  0.56743888  0.56198733  0.93789678     0.25500
C876        C  0.54011838  0.57994190  0.90926133    -0.40700
C877        C  0.52906303  0.56852514  0.87131582     0.32500
C878        C  0.54592041  0.54186141  0.86209044     0.14200
F879        F  0.60966017  0.51707108  0.95686897    -0.13100
F880        F  0.50243428  0.58403233  0.84262646    -0.13600
F881        F  0.57860266  0.57124301  0.97492252    -0.15900
F882        F  0.53593655  0.53429155  0.82497072    -0.14500
F883        F  0.54718913  0.45863991  0.84210771    -0.14500
F884        F  0.67284968  0.49385874  0.89362631    -0.15900
C885        C  0.39990713  0.86141972  0.07337960     0.14200
C886        C  0.42938812  0.87091708  0.07674299     0.01100
C887        C  0.44618396  0.90319911  0.09871658     0.16100
C888        C  0.43300081  0.92675696  0.11572422     0.25500
C889        C  0.40269129  0.91840200  0.11087499    -0.40800
C890        C  0.38667899  0.88480556  0.09031506     0.32600
C891        C  0.44272218  0.84686979  0.05758687     0.01200
F892        F  0.47496695  0.91259875  0.10269136    -0.13100
F893        F  0.35819161  0.87431769  0.08665348    -0.13600
C894        C  0.42697268  0.84327108  0.01793472     0.16100
C895        C  0.43978697  0.82047092  0.99992980     0.25500
C896        C  0.46866287  0.80092149  0.02141099    -0.40700
C897        C  0.48413698  0.80456373  0.06131460     0.32500
C898        C  0.47124397  0.82723556  0.07905025     0.14200
F899        F  0.39943712  0.86245623  0.99663476    -0.13100
F900        F  0.51168031  0.78579189  0.08360511    -0.13600
F901        F  0.42415180  0.81810576  0.96156279    -0.15900
F902        F  0.48640659  0.82946832  0.11744011    -0.14500
F903        F  0.38400891  0.82923219  0.05385374    -0.14500
F904        F  0.44939658  0.95852724  0.13556127    -0.15900
C905        C  0.73742586  0.72570700  0.07903102     0.14200
C906        C  0.72085687  0.72026667  0.03978703     0.01100
C907        C  0.73735906  0.71325865  0.01984229     0.16100
C908        C  0.77045924  0.71294773  0.03899138     0.25500
C909        C  0.78730829  0.71954072  0.07840730    -0.40800
C910        C  0.77033034  0.72502026  0.09828072     0.32600
C911        C  0.68620887  0.72031555  0.02052222     0.01200
F912        F  0.72138283  0.70710625  0.98187746    -0.13100
F913        F  0.78546925  0.72882440  0.13652900    -0.13600
C914        C  0.66978419  0.75560279  0.01239129     0.16100
C915        C  0.63744188  0.75582159  0.00068209     0.25500
C916        C  0.62122735  0.72060933  0.99722235    -0.40700
C917        C  0.63767651  0.68517666  0.00364634     0.32500
C918        C  0.66994477  0.68515325  0.01527270     0.14200
F919        F  0.68541331  0.78986121  0.01746265    -0.13100
F920        F  0.62318247  0.65060592  0.00141432    -0.13600
F921        F  0.62226619  0.79048718  0.99383339    -0.15900
F922        F  0.68581144  0.65090354  0.02385436    -0.14500
F923        F  0.72157722  0.73123724  0.09876541    -0.14500
F924        F  0.78588637  0.70713526  0.01883467    -0.15900
C925        C  0.93367774  0.67606308  0.07797674     0.14200
C926        C  0.92581064  0.63677976  0.06848998     0.01100
C927        C  0.90030285  0.62035511  0.07102142     0.16100
C928        C  0.88270966  0.64290259  0.08283258     0.25500
C929        C  0.89055009  0.68219813  0.09259179    -0.40800
C930        C  0.91613186  0.69871449  0.09002971     0.32600
C931        C  0.94349586  0.61276459  0.05493271     0.01200
F932        F  0.89260660  0.58231846  0.06223063    -0.13100
F933        F  0.92338063  0.73697157  0.09791326    -0.13600
C934        C  0.97229825  0.59583858  0.08071024     0.16100
C935        C  0.98789971  0.57079192  0.06791018     0.25500
C936        C  0.97482877  0.56229696  0.02893618    -0.40700
C937        C  0.94591939  0.57972571  0.00323628     0.32500
C938        C  0.93045941  0.60469599  0.01621458     0.14200
F939        F  0.98484309  0.60276522  0.11839160    -0.13100
F940        F  0.93258798  0.57288362  0.96545941    -0.13600
F941        F  0.01527097  0.55401322  0.09386316    -0.15900
F942        F  0.90254717  0.62091181  0.99098372    -0.14500
F943        F  0.95794009  0.69250113  0.07490665    -0.14500
F944        F  0.85841180  0.62608412  0.08557053    -0.15900
C945        C  0.45109702  0.77070716  0.78123817     0.14200
C946        C  0.44301835  0.80930039  0.78365035     0.01100
C947        C  0.44493799  0.82266400  0.81757139     0.16100
C948        C  0.45268131  0.79697727  0.84779824     0.25500
C949        C  0.45871168  0.75733237  0.84457672    -0.40800
C950        C  0.45902955  0.74502477  0.81130683     0.32600
C951        C  0.42849619  0.83358163  0.74909485     0.01200
F952        F  0.43760703  0.86009638  0.82065859    -0.13100
F953        F  0.46589043  0.70772704  0.80699148    -0.13600
C954        C  0.39853891  0.82327734  0.71960951     0.16100
C955        C  0.38395932  0.84558831  0.68671081     0.25500
C956        C  0.39907795  0.87884711  0.68244532    -0.40700
C957        C  0.42944368  0.88883032  0.71185320     0.32500
C958        C  0.44393760  0.86646668  0.74505614     0.14200
F959        F  0.38312555  0.79169657  0.72300329    -0.13100
F960        F  0.44467552  0.92087370  0.70905245    -0.13600
F961        F  0.35508142  0.83424055  0.65883227    -0.15900
F962        F  0.47301613  0.87680704  0.77317600    -0.14500
F963        F  0.45010287  0.75747766  0.74896076    -0.14500
F964        F  0.45321077  0.81080605  0.87962019    -0.15900
C965        C  0.17711916  0.94697333  0.49913939     0.14200
C966        C  0.19887579  0.94681296  0.53805121     0.01100
C967        C  0.18785146  0.95004086  0.56431146     0.16100
C968        C  0.15554116  0.95133635  0.55211556     0.25500
C969        C  0.13342352  0.94945612  0.51319194    -0.40800
C970        C  0.14456891  0.94845544  0.48672463     0.32600
C971        C  0.23303023  0.94143144  0.55180943     0.01200
F972        F  0.20851536  0.95144695  0.60201405    -0.13100
F973        F  0.12475522  0.43745019  0.44753028    -0.13600
C974        C  0.25121803  0.44944247  0.53953339     0.16100
C975        C  0.28389263  0.44612728  0.55413684     0.25500
C976        C  0.29910405  0.93298023  0.58273163    -0.40700
C977        C  0.28124310  0.90519302  0.59014240     0.32500
C978        C  0.24860251  0.90940538  0.57476980     0.14200
F979        F  0.23647961  0.48245134  0.52105322    -0.13100
F980        F  0.29515914  0.87369296  0.61214799    -0.13600
F981        F  0.29966934  0.47602976  0.54871362    -0.15900
F982        F  0.23206948  0.88210889  0.58239042    -0.14500
F983        F  0.18706599  0.42920954  0.46873384    -0.14500
F984        F  0.14600332  0.95419507  0.57865630    -0.15900
C985        C  0.08411244  0.57005624  0.59907809     0.14200
C986        C  0.07104439  0.56439042  0.62310992     0.01100
C987        C  0.04934262  0.53412085  0.61573368     0.16100
C988        C  0.04177505  0.50864513  0.58550520     0.25500
C989        C  0.05616350  0.51287608  0.56245440    -0.40800
C990        C  0.07664950  0.54465302  0.56884250     0.32600
C991        C  0.08256661  0.58784052  0.65784834     0.01200
F992        F  0.03623083  0.52861215  0.63851967    -0.13100
F993        F  0.09095930  0.54990314  0.54731435    -0.13600
C994        C  0.07142398  0.62573712  0.65658351     0.16100
C995        C  0.08521849  0.64935628  0.68892067     0.25500
C996        C  0.11067956  0.63541995  0.72262129    -0.40700
C997        C  0.12088413  0.59685787  0.72408210     0.32500
C998        C  0.10681542  0.57321751  0.69196440     0.14200
F999        F  0.04798645  0.64020844  0.62369274    -0.13100
F1000       F  0.14492212  0.58228804  0.75647942    -0.13600
F1001       F  0.07510765  0.68654824  0.68658752    -0.15900
F1002       F  0.11777262  0.53654102  0.69365589    -0.14500
F1003       F  0.10540754  0.59907271  0.60615746    -0.14500
F1004       F  0.02075289  0.47948098  0.57919306    -0.15900
C1005       C  0.87966353  0.80784138  0.23446703     0.14200
C1006       C  0.91235382  0.81400876  0.25371799     0.01100
C1007       C  0.93120431  0.79730186  0.23988446     0.16100
C1008       C  0.91738113  0.77501011  0.20662475     0.25500
C1009       C  0.88427936  0.76921846  0.18652280    -0.40800
C1010       C  0.86568751  0.78578939  0.20130175     0.32600
C1011       C  0.92593938  0.84166406  0.28559244     0.01200
F1012       F  0.96292827  0.80352423  0.25807320    -0.13100
F1013       F  0.83378782  0.78141065  0.18363138    -0.13600
C1014       C  0.93719916  0.82919796  0.32299004     0.16100
C1015       C  0.94797933  0.85638896  0.35258767     0.25500
C1016       C  0.94778830  0.89661773  0.34509841    -0.40700
C1017       C  0.93640524  0.90858206  0.30718447     0.32500
C1018       C  0.92557103  0.88136596  0.27792994     0.14200
F1019       F  0.93728102  0.79075440  0.33070853    -0.13100
F1020       F  0.93526409  0.94673066  0.29794972    -0.13600
F1021       F  0.95821225  0.84320289  0.38834573    -0.15900
F1022       F  0.91414516  0.89385077  0.24173477    -0.14500
F1023       F  0.86108396  0.82422892  0.24733196    -0.14500
F1024       F  0.93644909  0.76000751  0.19383871    -0.15900
C1025       C  0.77516757  0.00613496  0.34530089     0.14200
C1026       C  0.79451396  0.99884666  0.38403727     0.01100
C1027       C  0.78050480  0.99259597  0.40705255     0.16100
C1028       C  0.74754252  0.99318472  0.39139568     0.25500
C1029       C  0.72804825  0.00022152  0.35239066    -0.40800
C1030       C  0.74240547  0.00721417  0.32970977     0.32600
C1031       C  0.82919979  0.99706650  0.39965945     0.01200
F1032       F  0.79876955  0.98627132  0.44474515    -0.13100
F1033       F  0.72486978  0.01379743  0.29199975    -0.13600
C1034       C  0.84528404  0.02834113  0.39416167     0.16100
C1035       C  0.87697813  0.02475562  0.40344493     0.25500
C1036       C  0.89336825  0.98976204  0.41871239    -0.40700
C1037       C  0.87775727  0.95940326  0.42665470     0.32500
C1038       C  0.84587054  0.96295862  0.41692196     0.14200
F1039       F  0.82993000  0.06208274  0.37865127    -0.13100
F1040       F  0.89266327  0.92532299  0.44167868    -0.13600
F1041       F  0.89136414  0.05539829  0.39670512    -0.15900
F1042       F  0.83077595  0.93212470  0.42215537    -0.14500
F1043       F  0.78800581  0.01100232  0.32213230    -0.14500
F1044       F  0.73483469  0.98736363  0.41455859    -0.15900
C1045       C  0.58052678  0.56527102  0.19074183     0.14200
C1046       C  0.59747850  0.59090986  0.18005544     0.01100
C1047       C  0.62081042  0.05776932  0.18842091     0.16100
C1048       C  0.63698067  0.03699012  0.22198909     0.25500
C1049       C  0.62381545  0.03182787  0.24613781    -0.40800
C1050       C  0.59614940  0.54425379  0.22464572     0.32600
C1051       C  0.58185777  0.61261317  0.14409719     0.01200
F1052       F  0.63494104  0.06384652  0.16679347    -0.13100
F1053       F  0.57905670  0.51927170  0.23374622    -0.13600
C1054       C  0.58050765  0.65328997  0.14468440     0.16100
C1055       C  0.56983180  0.67454194  0.11127914     0.25500
C1056       C  0.56063371  0.65545125  0.07645770    -0.40700
C1057       C  0.56114149  0.61440705  0.07592291     0.32500
C1058       C  0.57160367  0.59325019  0.10949495     0.14200
F1059       F  0.59029471  0.67250867  0.17793276    -0.13100
F1060       F  0.55279743  0.59465013  0.04328296    -0.13600
F1061       F  0.56888770  0.71390025  0.11332118    -0.15900
F1062       F  0.57327323  0.55389234  0.10853767    -0.14500
F1063       F  0.54885656  0.56070957  0.16836132    -0.14500
F1064       F  0.66557877  0.02178296  0.23067032    -0.15900
C1065       C  0.13137411  0.80739741  0.17838485     0.14200
C1066       C  0.09951629  0.81664627  0.16495420     0.01100
C1067       C  0.08349188  0.80153302  0.18329622     0.16100
C1068       C  0.09919196  0.77698098  0.21464726     0.25500
C1069       C  0.13138012  0.76765408  0.22841059    -0.40800
C1070       C  0.14721835  0.78335106  0.20976406     0.32600
C1071       C  0.08399341  0.84354634  0.13270851     0.01200
F1072       F  0.05268323  0.81058276  0.17082682    -0.13100
F1073       F  0.17811663  0.77544719  0.22156327    -0.13600
C1074       C  0.07907468  0.83240248  0.09682716     0.16100
C1075       C  0.07004458  0.85985772  0.06790011     0.25500
C1076       C  0.06585937  0.89919705  0.07448105    -0.40700
C1077       C  0.06912866  0.90960017  0.11013477     0.32500
C1078       C  0.07816301  0.88199341  0.13889425     0.14200
F1079       F  0.08422091  0.79507302  0.09030565    -0.13100
F1080       F  0.06456246  0.94674249  0.11782631    -0.13600
F1081       F  0.06677541  0.84802569  0.03408256    -0.15900
F1082       F  0.08299151  0.89331277  0.17354259    -0.14500
F1083       F  0.14740606  0.82246489  0.16142391    -0.14500
F1084       F  0.08301774  0.76318805  0.23190077    -0.15900
C1085       C  0.10077557  0.58356003  0.39938438     0.14200
C1086       C  0.08531339  0.59406379  0.36099176     0.01100
C1087       C  0.05434743  0.58088631  0.33742368     0.16100
C1088       C  0.03875442  0.55824189  0.35209573     0.25500
C1089       C  0.05393946  0.54810997  0.39085298    -0.40800
C1090       C  0.08535297  0.56073691  0.41419434     0.32600
C1091       C  0.10123982  0.61947108  0.34571132     0.01200
F1092       F  0.03924319  0.58970508  0.29996261    -0.13100
F1093       F  0.10123293  0.55143559  0.45151471    -0.13600
C1094       C  0.13022482  0.60844948  0.34841033     0.16100
C1095       C  0.14574174  0.63307189  0.33508979     0.25500
C1096       C  0.13235217  0.66905738  0.31843443    -0.40700
C1097       C  0.10302500  0.67970750  0.31514669     0.32500
C1098       C  0.08770877  0.65520811  0.32886102     0.14200
F1099       F  0.14330934  0.57354728  0.36352542    -0.13100
F1100       F  0.08969480  0.71446720  0.29995320    -0.13600
F1101       F  0.17358335  0.62127817  0.33783010    -0.15900
F1102       F  0.06004921  0.66689846  0.32668922    -0.14500
F1103       F  0.13064258  0.59626557  0.42284799    -0.14500
F1104       F  0.00875893  0.54633122  0.32809475    -0.15900
C1105       C  0.34858626  0.75663548  0.38229142     0.14200
C1106       C  0.33309475  0.72533873  0.38867120     0.01100
C1107       C  0.35082314  0.69420595  0.41151500     0.16100
C1108       C  0.38365449  0.69352567  0.42639185     0.25500
C1109       C  0.39899494  0.72387632  0.41824963    -0.40800
C1110       C  0.38127603  0.75593425  0.39693168     0.32600
C1111       C  0.29830638  0.72396229  0.36921925     0.01200
F1112       F  0.33611541  0.66351428  0.41762145    -0.13100
F1113       F  0.39559428  0.78639945  0.38980015    -0.13600
C1114       C  0.28140346  0.72160103  0.32954888     0.16100
C1115       C  0.24842703  0.72006288  0.31077072     0.25500
C1116       C  0.23193364  0.72066485  0.33146686    -0.40700
C1117       C  0.24887963  0.72285837  0.37118820     0.32500
C1118       C  0.28190782  0.72464835  0.38995281     0.14200
F1119       F  0.29694252  0.72013384  0.30909445    -0.13100
F1120       F  0.23341031  0.72457440  0.39169003    -0.13600
F1121       F  0.23264239  0.71693050  0.27244304    -0.15900
F1122       F  0.29789901  0.72789649  0.42825347    -0.14500
F1123       F  0.33189789  0.78749426  0.36115417    -0.14500
F1124       F  0.40008893  0.66214263  0.44665173    -0.15900
C1125       C  0.60245733  0.81702293  0.62143606     0.14200
C1126       C  0.59097480  0.81203745  0.64718891     0.01100
C1127       C  0.56709017  0.78457822  0.63940062     0.16100
C1128       C  0.55571540  0.76112149  0.60711542     0.25500
C1129       C  0.56808655  0.76470168  0.58195928    -0.40800
C1130       C  0.59095480  0.79375986  0.58888031     0.32600
C1131       C  0.60538034  0.83334166  0.68356063     0.01200
F1132       F  0.55583526  0.77926015  0.66408644    -0.13100
F1133       F  0.60360354  0.79812738  0.56547045    -0.13600
C1134       C  0.58925845  0.86397242  0.68970862     0.16100
C1135       C  0.60284617  0.88351082  0.72458003     0.25500
C1136       C  0.63284614  0.87257088  0.75392077    -0.40700
C1137       C  0.64851927  0.84111082  0.74772860     0.32500
C1138       C  0.63493648  0.82185193  0.71286601     0.14200
F1139       F  0.56059249  0.87537884  0.66162009    -0.13100
F1140       F  0.67693475  0.82858586  0.77555655    -0.13600
F1141       F  0.58712099  0.91395419  0.72903845    -0.15900
F1142       F  0.65050869  0.79157891  0.70779688    -0.14500
F1143       F  0.62551196  0.84362010  0.62848051    -0.14500
F1144       F  0.53306703  0.73422813  0.60094347    -0.15900
C1145       C  0.46752534  0.62125137  0.30365620     0.14200
C1146       C  0.44902258  0.58893913  0.30168768     0.01100
C1147       C  0.44341261  0.58105186  0.33209738     0.16100
C1148       C  0.45478331  0.60625117  0.36324651     0.25500
C1149       C  0.47165613  0.64021737  0.36425666    -0.40800
C1150       C  0.47881659  0.64661033  0.33460714     0.32600
C1151       C  0.43286949  0.56595717  0.26630990     0.01200
F1152       F  0.42590534  0.54957761  0.33093962    -0.13100
F1153       F  0.49597484  0.67808483  0.33485307    -0.13600
C1154       C  0.45003543  0.54386925  0.25322108     0.16100
C1155       C  0.43430704  0.52297790  0.21916924     0.25500
C1156       C  0.40571219  0.02266479  0.19830670    -0.40700
C1157       C  0.38943872  0.05352181  0.20451724     0.32500
C1158       C  0.40499136  0.07811265  0.23566197     0.14200
F1159       F  0.48205023  0.54213929  0.27372962    -0.13100
F1160       F  0.35832116  0.06022928  0.18057490    -0.13600
F1161       F  0.45186276  0.50171056  0.20782365    -0.15900
F1162       F  0.38852763  0.10699030  0.24121212    -0.14500
F1163       F  0.47309209  0.62953459  0.27448152    -0.14500
F1164       F  0.44772494  0.59836908  0.39130546    -0.15900
C1165       C  0.43685408  0.55240389  0.51829274     0.14200
C1166       C  0.45192338  0.53846299  0.55564446     0.01100
C1167       C  0.48277734  0.55096442  0.58069088     0.16100
C1168       C  0.49817641  0.57755527  0.56888030     0.25500
C1169       C  0.48301037  0.59219925  0.53150512    -0.40800
C1170       C  0.45218933  0.57891259  0.50627713     0.32600
C1171       C  0.43498312  0.51213644  0.56891085     0.01200
F1172       F  0.49765229  0.53842781  0.61712315    -0.13100
F1173       F  0.43677016  0.59134613  0.46984568    -0.13600
C1174       C  0.44729018  0.47534068  0.58393932     0.16100
C1175       C  0.43117258  0.45078013  0.59661917     0.25500
C1176       C  0.40228935  0.46246295  0.59396283    -0.40700
C1177       C  0.39024415  0.49948961  0.57933823     0.32500
C1178       C  0.40651431  0.52412482  0.56709943     0.14200
F1179       F  0.47455271  0.46286771  0.58553288    -0.13100
F1180       F  0.36310933  0.51234187  0.57784863    -0.13600
F1181       F  0.43834929  0.92302121  0.60218427    -0.15900
F1182       F  0.39477681  0.56011241  0.55414350    -0.14500
F1183       F  0.40721192  0.54015509  0.49331303    -0.14500
F1184       F  0.52764000  0.58967104  0.59458833    -0.15900
C1185       C  0.63367895  0.89430266  0.38886456     0.14200
C1186       C  0.60216981  0.90058938  0.37991353     0.01100
C1187       C  0.58568134  0.93239978  0.35724619     0.16100
C1188       C  0.60035441  0.95720333  0.34296143     0.25500
C1189       C  0.63183251  0.95054992  0.35123378    -0.40800
C1190       C  0.64845721  0.91904971  0.37477701     0.32600
C1191       C  0.58600071  0.87215295  0.39202346     0.01200
F1192       F  0.55525783  0.93918138  0.34869596    -0.13100
F1193       F  0.67852640  0.91085336  0.38272282    -0.13600
C1194       C  0.59695663  0.86501350  0.43062068     0.16100
C1195       C  0.58292874  0.83600205  0.44186960     0.25500
C1196       C  0.55761277  0.81378423  0.41456327    -0.40700
C1197       C  0.54664914  0.82128306  0.37584315     0.32500
C1198       C  0.56072750  0.85022923  0.36475644     0.14200
F1199       F  0.62113930  0.88635499  0.45737448    -0.13100
F1200       F  0.52286273  0.79989124  0.34855471    -0.13600
F1201       F  0.59375998  0.83019388  0.47942053    -0.15900
F1202       F  0.55034404  0.85603914  0.32728768    -0.14500
F1203       F  0.64966749  0.86298993  0.40980689    -0.14500
F1204       F  0.58371896  0.98767408  0.32107839    -0.15900
C1205       C  0.75699367  0.72691916  0.55907301     0.14200
C1206       C  0.74098223  0.69996079  0.56974624     0.01100
C1207       C  0.75794545  0.67146984  0.59667259     0.16100
C1208       C  0.79072987  0.66999153  0.61326153     0.25500
C1209       C  0.80730054  0.69717990  0.60311752    -0.40800
C1210       C  0.78996461  0.72574111  0.57573405     0.32600
C1211       C  0.70663598  0.70206217  0.55449641     0.01200
F1212       F  0.74257455  0.64491324  0.60688175    -0.13100
F1213       F  0.80477090  0.75311835  0.56559524    -0.13600
C1214       C  0.68597697  0.68960388  0.51747041     0.16100
C1215       C  0.65356044  0.68664089  0.50510575     0.25500
C1216       C  0.64172921  0.69573539  0.52990110    -0.40700
C1217       C  0.66241866  0.70956964  0.56647372     0.32500
C1218       C  0.69464670  0.71284893  0.57859932     0.14200
F1219       F  0.69738896  0.67873016  0.49402053    -0.13100
F1220       F  0.65137841  0.72017730  0.59037226    -0.13600
F1221       F  0.63398603  0.67317048  0.46966282    -0.15900
F1222       F  0.71438447  0.72583465  0.61419160    -0.14500
F1223       F  0.74074199  0.75490302  0.53323144    -0.14500
F1224       F  0.80598838  0.64160792  0.63905732    -0.15900
C1225       C  0.96933754  0.54740915  0.80703886     0.14200
C1226       C  0.94857379  0.57766152  0.80281288     0.01100
C1227       C  0.93689142  0.58134742  0.82842808     0.16100
C1228       C  0.94484938  0.55393042  0.85716317     0.25500
C1229       C  0.96446427  0.52229407  0.86037990    -0.40800
C1230       C  0.97728460  0.51988684  0.83560476     0.32600
C1231       C  0.93512271  0.60121079  0.76822091     0.01200
F1232       F  0.91645099  0.61033963  0.82430711    -0.13100
F1233       F  0.99695438  0.49041049  0.83843648    -0.13600
C1234       C  0.90742464  0.58818053  0.73668482     0.16100
C1235       C  0.89377023  0.60998745  0.70354764     0.25500
C1236       C  0.90764196  0.64528877  0.70145098    -0.40700
C1237       C  0.93607512  0.65771068  0.73269952     0.32500
C1238       C  0.94966944  0.63579924  0.76609821     0.14200
F1239       F  0.89348844  0.55434483  0.73821314    -0.13100
F1240       F  0.94985446  0.69176295  0.73147279    -0.13600
F1241       F  0.86699373  0.59647292  0.67337968    -0.15900
F1242       F  0.97656485  0.64859368  0.79651590    -0.14500
F1243       F  0.98060683  0.54348657  0.78222221    -0.14500
F1244       F  0.93171553  0.55699436  0.88017365    -0.15900
C1245       C  0.94482907  0.73437186  0.58186501     0.14200
C1246       C  0.93428289  0.77140348  0.56615191     0.01100
C1247       C  0.90958771  0.78913705  0.56949570     0.16100
C1248       C  0.89539310  0.77001617  0.58788609     0.25500
C1249       C  0.90594932  0.73301452  0.60372767    -0.40800
C1250       C  0.93087934  0.71538430  0.60073932     0.32600
C1251       C  0.95002776  0.79283578  0.54817536     0.01200
F1252       F  0.89976942  0.82550839  0.55580748    -0.13100
F1253       F  0.94099050  0.67924961  0.61490027    -0.13600
C1254       C  0.93233882  0.80781263  0.51142614     0.16100
C1255       C  0.94636472  0.83299709  0.49663898     0.25500
C1256       C  0.97846821  0.84357151  0.51843023    -0.40700
C1257       C  0.99659402  0.82610990  0.55430308     0.32500
C1258       C  0.98241237  0.80125919  0.56901639     0.14200
F1259       F  0.90121531  0.79870422  0.49017323    -0.13100
F1260       F  0.02786252  0.83415601  0.57616126    -0.13600
F1261       F  0.92824578  0.84756413  0.46134888    -0.15900
F1262       F  0.00003308  0.78720761  0.60464879    -0.14500
F1263       F  0.96830389  0.71639211  0.57841666    -0.14500
F1264       F  0.87180804  0.78814543  0.59100113    -0.15900
loop_ 
_geom_bond_atom_site_label_1 
_geom_bond_atom_site_label_2 
_geom_bond_distance 
_geom_bond_site_symmetry_2 
_ccdc_geom_bond_type 
C1            N2   1.354       .  A
C1            N6   1.357       .  A
C1          C604   1.472       .  S
N2            C3   1.353       .  A
C3            N4   1.352       .  A
C3          C577   1.470       .  S
N4            C5   1.356       .  A
C5            N6   1.359       .  A
C5          C617   1.465       .  S
O7          Ni13   1.924       .  S
O7           C28   1.268       .  A
O8          Ni31   1.911       .  S
O8           C17   1.269       .  A
O9          Ni13   1.920       .  S
O9          Ni31   1.915       .  S
O9          Ni25   1.899       .  S
O9           H32   0.966       .  S
C10         C584   1.463       .  S
C10          O27   1.262       .  A
C10          O19   1.271       .  A
O11         Ni30   1.922       .  S
O11          C17   1.270       .  A
O12         Ni30   1.899       .  S
O12          C14   1.269       .  A
Ni13         O16   1.915       .  S
Ni13         O18   1.901       .  S
C14         C497   1.490       .  S
C14          O24   1.278       .  A
O15         Ni31   1.901       .  S
O15          C21   1.269       .  A
O16          C21   1.271       .  A
C17         C537   1.493       .  S
O18          C20   1.268       .  A
O19         Ni30   1.927       .  S
C20         C517   1.492       .  S
C20          O26   1.275       .  A
C21         C477   1.475       .  S
H22          O23   0.966       .  S
O23         Ni31   1.914       .  S
O23         Ni25   1.913       .  S
O23         Ni30   1.920       .  S
O24         Ni25   1.950       .  S
Ni25         O29   1.907       .  S
Ni25         O27   1.888       .  S
O26         Ni31   1.938       .  S
C28         C564   1.490       .  S
C28          O29   1.266       .  A
C33          N34   1.358       .  A
C33          N38   1.356       .  A
C33         C437   1.471       .  S
N34          C35   1.359       .  A
C35          N36   1.357       .  A
C35         C464   1.479       .  S
N36          C37   1.355       .  A
C37          N38   1.355       .  A
C37         C484   1.468       .  S
C39          N40   1.363       .  A
C39          N44   1.355       .  A
C39         C417   1.490       .  S
N40          C41   1.365       .  A
C41          N42   1.359       .  A
C41         C557   1.487       .  S
N42          C43   1.354       .  A
C43          N44   1.352       .  A
C43         C397   1.478       .  S
O45         Ni51   1.931   1_455  S
O45         C698   1.271       .  A
O46         Ni69   1.897       .  S
O46          C55   1.266       .  A
O47         Ni51   1.908       .  S
O47         Ni69   1.903       .  S
O47         Ni63   1.897   1_655  S
O47         H702   0.966   1_655  S
C48         C337   1.482       .  S
C48          O65   1.266       .  A
C48          O57   1.269       .  A
O49         Ni68   1.910       .  S
O49          C55   1.268   1_455  A
O50         Ni68   1.900       .  S
O50         C684   1.271       .  A
Ni51         O54   1.920       .  S
Ni51         O56   1.898       .  S
C52         C357   1.480   1_565  S
C52          O62   1.277       .  A
C52         O682   1.271       .  A
O53         Ni69   1.913       .  S
O53          C59   1.273       .  A
O54          C59   1.275       .  A
C55         C624   1.480       .  S
O56          C58   1.267       .  A
O57         Ni68   1.925       .  S
C58         C384   1.485       .  S
C58          O64   1.270       .  A
C59         C404   1.484       .  S
H60          O61   0.964       .  S
O61         Ni69   1.924   1_455  S
O61         Ni63   1.905       .  S
O61         Ni68   1.911       .  S
O62        Ni695   1.945       .  S
Ni63         O65   1.905       .  S
Ni63        O694   1.953       .  S
Ni63        O699   1.899       .  S
O64         Ni69   1.923       .  S
C66         C457   1.484       .  S
C66          O67   1.263       .  A
C66         O677   1.273       .  A
O67        Ni695   1.888   1_545  S
H70         O679   0.966   1_545  S
C71          N72   1.357       .  A
C71         N708   1.361       .  A
C71         C324   1.492       .  S
N72          C73   1.355       .  A
C73         N706   1.356       .  A
C73         C344   1.483       .  S
N74          C75   1.357       .  A
N74         C705   1.355       .  A
C75          N76   1.362       .  A
C75         C544   1.481       .  S
N76         C703   1.362       .  A
C77          N78   1.356       .  A
C77          N82   1.357       .  A
C77         C377   1.483       .  S
N78          C79   1.358       .  A
C79          N80   1.357       .  A
C79         C277   1.480       .  S
N80          C81   1.359       .  A
C81          N82   1.357       .  A
C81         C297   1.472       .  S
O83         Ni89   1.924       .  S
O83         C104   1.270       .  A
O84        Ni107   1.901       .  S
O84          C93   1.265       .  A
O85         Ni89   1.910   1_556  S
O85        Ni107   1.906       .  S
O85        Ni101   1.911       .  S
O85         H108   0.967       .  S
C86         C224   1.476       .  S
C86         O103   1.275       .  A
C86          O95   1.274       .  A
O87        Ni106   1.931       .  S
O87          C93   1.271       .  A
O88        Ni106   1.900       .  S
O88          C90   1.267       .  A
Ni89         O92   1.926       .  S
Ni89         O94   1.910       .  S
C90         C317   1.488       .  S
C90         O100   1.272       .  A
O91        Ni107   1.899       .  S
O91          C97   1.269   1_556  A
O92          C97   1.275       .  A
C93         C244   1.483       .  S
O94          C96   1.269       .  A
O95        Ni106   1.917       .  S
C96         C424   1.489       .  S
C96         O102   1.271       .  A
C97         C284   1.479       .  S
H98          O99   0.963       .  S
O99        Ni107   1.896       .  S
O99        Ni101   1.913       .  S
O99        Ni106   1.906       .  S
O100       Ni101   1.933       .  S
Ni101       O105   1.916       .  S
Ni101       O103   1.912       .  S
O102       Ni107   1.920   1_554  S
C104        C264   1.491       .  S
C104        O105   1.270   1_554  A
C109        N110   1.356       .  A
C109        N114   1.357       .  A
C109        C364   1.467       .  S
N110        C111   1.358       .  A
C111        N112   1.357       .  A
C111        C204   1.475       .  S
N112        C113   1.356       .  A
C113        N114   1.357       .  A
C113        C217   1.482       .  S
C115        N116   1.361       .  A
C115        N120   1.357       .  A
C115        C504   1.493       .  S
N116        C749   1.362       .  A
C117        N118   1.360       .  A
C117        N748   1.365       .  A
C117        C237   1.495       .  S
N118        C751   1.355       .  A
C119        N120   1.354       .  A
C119        N750   1.352       .  A
C119        C177   1.469       .  S
C121        N122   1.363       .  A
C121        N126   1.357       .  A
C121        C524   1.495       .  S
N122        C123   1.363       .  A
C123        N124   1.358       .  A
C123        C257   1.481       .  S
N124        C125   1.353       .  A
C125        N126   1.354       .  A
C125        C157   1.479       .  S
O127       Ni133   1.928       .  S
O127        C780   1.270   1_455  A
O128       Ni151   1.909       .  S
O128        C137   1.268       .  A
O129       Ni133   1.920   1_556  S
O129       Ni151   1.915       .  S
O129       Ni145   1.909   1_455  S
O129        H784   0.966       .  S
C130        C184   1.485       .  S
C130        O147   1.266       .  A
C130        O139   1.270       .  A
O131       Ni150   1.911   1_455  S
O131        C137   1.267       .  A
O132       Ni150   1.896       .  S
O132        C766   1.267       .  A
Ni133       O136   1.921       .  S
Ni133       O138   1.896       .  S
C134        C597   1.481   1_565  S
C134        O144   1.269   1_565  A
C134        O764   1.266       .  A
O135       Ni151   1.905       .  S
O135        C141   1.268   1_556  A
O136        C141   1.272       .  A
C137        C197   1.484       .  S
O138        C140   1.269       .  A
O139       Ni150   1.923       .  S
C140        C444   1.479       .  S
C140        O146   1.276       .  A
C141        C164   1.480       .  S
H142        O143   0.965       .  S
O143       Ni151   1.917   1_655  S
O143       Ni145   1.911       .  S
O143       Ni150   1.918       .  S
O144       Ni777   1.920   1_545  S
Ni145       O147   1.902       .  S
Ni145       O776   1.938       .  S
Ni145       O781   1.897       .  S
O146       Ni151   1.937   1_554  S
C148        C304   1.486       .  S
C148        O149   1.265   1_554  A
C148        O759   1.272   1_655  A
O149       Ni777   1.894   1_545  S
H152        O761   0.967   1_545  S
C153        C154   1.407       .  A
C153        C158   1.394       .  A
C153        F171   1.358       .  S
C154        C159   1.483       .  S
C154        C155   1.406       .  A
C155        C156   1.400       .  A
C155        F160   1.358   1_554  S
C156        C157   1.409       .  A
C156        F172   1.358       .  S
C157        C158   1.407       .  A
C158        F161   1.358       .  S
C159        C162   1.405       .  A
C159        C166   1.407       .  A
C162        C163   1.394       .  A
C162        F167   1.358       .  S
C163        C164   1.408       .  A
C163        F801   1.358       .  S
C164        C165   1.409       .  A
C165        C166   1.400       .  A
C165        F168   1.358   1_554  S
C166        F170   1.358       .  S
F169        C795   1.358       .  S
C173        C174   1.405       .  A
C173        C178   1.394       .  A
C173        F191   1.358       .  S
C174        C179   1.475       .  S
C174        C807   1.404       .  A
C175        C176   1.399       .  A
C175        C806   1.404       .  A
C175        F180   1.358       .  S
C176        C809   1.408       .  A
C176        F192   1.358       .  S
C177        C178   1.403       .  A
C177        C808   1.407       .  A
C178        F181   1.358       .  S
C179        C182   1.401       .  A
C179        C186   1.403       .  A
C182        C183   1.391       .  A
C182        F819   1.359       .  S
C183        C184   1.413       .  A
C183        F189   1.358       .  S
C184        C185   1.413       .  A
C185        C186   1.400       .  A
C185        F188   1.358       .  S
C186        F190   1.358       .  S
F187        C814   1.358       .  S
C193        C194   1.407       .  A
C193        C198   1.400       .  A
C193        F211   1.358       .  S
C194        C199   1.479       .  S
C194        C195   1.401       .  A
C195        C196   1.393       .  A
C195        F200   1.359       .  S
C196        C197   1.414       .  A
C196        F212   1.358       .  S
C197        C198   1.408       .  A
C198        F201   1.357       .  S
C199        C202   1.407       .  A
C199        C206   1.404       .  A
C202        C203   1.397       .  A
C202        F207   1.358       .  S
C203        C204   1.407       .  A
C203        F209   1.358       .  S
C204        C205   1.407       .  A
C205        C206   1.395       .  A
C205        F208   1.358       .  S
C206        F210   1.358       .  S
C213        C214   1.404       .  A
C213        C218   1.396       .  A
C213        F231   1.358       .  S
C214        C219   1.475       .  S
C214        C215   1.402       .  A
C215        C216   1.395       .  A
C215        F220   1.358       .  S
C216        C217   1.411       .  A
C216        F232   1.357       .  S
C217        C218   1.410       .  A
C218        F221   1.358       .  S
C219        C222   1.402       .  A
C219        C226   1.406       .  A
C222        C223   1.391       .  A
C222        F227   1.358       .  S
C223        C224   1.409       .  A
C223        F229   1.359       .  S
C224        C225   1.408       .  A
C225        C226   1.400       .  A
C225        F228   1.358       .  S
C226        F230   1.358       .  S
C233        C234   1.405   1_565  A
C233        C238   1.400       .  A
C233        F251   1.358       .  S
C234        C239   1.484       .  S
C234        C235   1.403       .  A
C235        C236   1.398   1_545  A
C235        F240   1.358       .  S
C236        C237   1.416       .  A
C236        F252   1.358       .  S
C237        C238   1.413       .  A
C238        F241   1.357       .  S
C239        C242   1.407       .  A
C239        C246   1.404       .  A
C242        C243   1.401       .  A
C242        F247   1.358       .  S
C243        C244   1.409       .  A
C243        F249   1.358       .  S
C244        C245   1.410       .  A
C245        C246   1.396       .  A
C245        F248   1.358       .  S
C246        F250   1.358       .  S
C253        C254   1.403       .  A
C253        C258   1.395       .  A
C253        F271   1.358       .  S
C254        C259   1.480       .  S
C254        C255   1.407       .  A
C255        C256   1.401       .  A
C255        F260   1.358       .  S
C256        C257   1.408       .  A
C256        F272   1.358       .  S
C257        C258   1.410       .  A
C258        F261   1.358       .  S
C259        C262   1.406       .  A
C259        C266   1.400       .  A
C262        C263   1.401   1_554  A
C262        F267   1.358   1_554  S
C263        C264   1.411   1_556  A
C263        F269   1.358       .  S
C264        C265   1.415       .  A
C265        C266   1.395       .  A
C265        F268   1.358       .  S
C266        F270   1.358       .  S
C273        C274   1.400       .  A
C273        C278   1.392       .  A
C273        F291   1.358       .  S
C274        C279   1.470       .  S
C274        C275   1.402       .  A
C275        C276   1.402       .  A
C275        F280   1.358   1_554  S
C276        C277   1.412       .  A
C276        F292   1.358       .  S
C277        C278   1.408       .  A
C278        F281   1.357       .  S
C279        C282   1.403       .  A
C279        C286   1.400       .  A
C282        C283   1.397       .  A
C282        F287   1.358       .  S
C283        C284   1.408       .  A
C283        F289   1.358       .  S
C284        C285   1.412       .  A
C285        C286   1.396       .  A
C285        F288   1.358   1_554  S
C286        F290   1.358       .  S
C293        C294   1.404       .  A
C293        C298   1.399       .  A
C293        F311   1.358       .  S
C294        C299   1.473       .  S
C294        C295   1.403       .  A
C295        C296   1.394       .  A
C295        F300   1.358       .  S
C296        C297   1.405       .  A
C296        F312   1.358       .  S
C297        C298   1.408       .  A
C298        F301   1.358       .  S
C299        C302   1.402       .  A
C299        C306   1.401       .  A
C302        C303   1.399       .  A
C302        F307   1.358       .  S
C303        C304   1.414       .  A
C303        F309   1.358   1_655  S
C304        C305   1.412       .  A
C305        C306   1.394       .  A
C305        F308   1.358   1_554  S
C306        F310   1.358   1_554  S
C313        C314   1.398       .  A
C313        C318   1.395       .  A
C313        F331   1.358       .  S
C314        C319   1.471       .  S
C314        C315   1.402       .  A
C315        C316   1.400       .  A
C315        F320   1.358       .  S
C316        C317   1.413       .  A
C316        F332   1.358       .  S
C317        C318   1.413       .  A
C318        F321   1.358       .  S
C319        C322   1.398       .  A
C319        C326   1.401       .  A
C322        C323   1.394       .  A
C322        F327   1.359       .  S
C323        C324   1.415       .  A
C323        F329   1.357       .  S
C324        C325   1.415       .  A
C325        C326   1.402       .  A
C325        F328   1.357       .  S
C326        F330   1.358       .  S
C333        C334   1.404       .  A
C333        C338   1.400       .  A
C333        F983   1.358       .  S
C334        C339   1.475       .  S
C334        C335   1.402       .  A
C335        C336   1.392       .  A
C335        F340   1.358       .  S
C336        C337   1.412       .  A
C336        F352   1.358       .  S
C337        C338   1.411       .  A
C338        F973   1.358       .  S
C339        C346   1.403       .  A
C339        C974   1.402       .  A
F341        C970   1.358       .  S
C342        C343   1.399       .  A
C342        C971   1.401       .  A
C342        F347   1.358   1_565  S
C343        C976   1.414       .  A
C343        F349   1.357       .  S
C344        C345   1.410       .  A
C344        C975   1.411       .  A
C345        C346   1.396       .  A
C345        F348   1.357       .  S
C346        F350   1.358       .  S
F351        C965   1.358       .  S
C353        C354   1.403       .  A
C353        C358   1.396       .  A
C353        F371   1.358       .  S
C354        C359   1.474       .  S
C354        C355   1.403       .  A
C355        C356   1.397       .  A
C355        F360   1.358       .  S
C356        C357   1.410       .  A
C356        F372   1.358   1_545  S
C357        C358   1.410       .  A
C358        F361   1.358       .  S
C359        C362   1.405       .  A
C359        C366   1.405       .  A
C362        C363   1.399       .  A
C362        F367   1.358       .  S
C363        C364   1.405       .  A
C363        F369   1.358       .  S
C364        C365   1.403       .  A
C365        C366   1.394       .  A
C365        F368   1.358       .  S
C366        F370   1.358       .  S
C373        C374   1.405       .  A
C373        C378   1.396       .  A
C373        F391   1.358       .  S
C374        C379   1.481       .  S
C374        C375   1.405       .  A
C375        C376   1.396       .  A
C375        F380   1.358       .  S
C376        C377   1.409       .  A
C376        F392   1.358       .  S
C377        C378   1.411       .  A
C378        F381   1.357       .  S
C379        C382   1.406       .  A
C379        C386   1.404       .  A
C382        C383   1.400       .  A
C382        F387   1.358       .  S
C383        C384   1.412       .  A
C383        F389   1.358       .  S
C384        C385   1.410       .  A
C385        C386   1.393       .  A
C385        F388   1.358       .  S
C386        F390   1.358       .  S
C393        C394   1.405       .  A
C393        C398   1.394       .  A
C393        F411   1.358       .  S
C394        C399   1.480       .  S
C394        C395   1.405       .  A
C395        C396   1.400       .  A
C395        F400   1.358       .  S
C396        C397   1.408       .  A
C396        F412   1.358       .  S
C397        C398   1.408       .  A
C398        F401   1.358       .  S
C399        C402   1.404       .  A
C399        C406   1.405       .  A
C402        C403   1.395       .  A
C402        F407   1.358       .  S
C403        C404   1.410       .  A
C403        F409   1.358       .  S
C404        C405   1.411       .  A
C405        C406   1.399       .  A
C405        F408   1.357       .  S
C406        F410   1.358       .  S
C413        C414   1.405       .  A
C413        C418   1.403       .  A
C413        F431   1.358       .  S
C414        C419   1.478       .  S
C414       C1047   1.402       .  A
C415        C416   1.392       .  A
C415       C1046   1.399       .  A
C415        F420   1.359       .  S
C416        C417   1.415       .  A
C416        F432   1.358       .  S
C417       C1050   1.413       .  A
C418       C1049   1.410       .  A
C418        F421   1.358       .  S
C419        C422   1.403       .  A
C419        C426   1.403       .  A
C422        C423   1.399       .  A
C422        F427   1.358       .  S
C423        C424   1.414       .  A
C423        F429   1.358       .  S
C424        C425   1.412       .  A
C425        C426   1.397       .  A
C425        F428   1.358       .  S
C426        F430   1.358       .  S
C433        C434   1.403       .  A
C433        C438   1.395       .  A
C433        F451   1.358       .  S
C434        C439   1.473       .  S
C434        C435   1.405       .  A
C435        C436   1.399       .  A
C435        F440   1.358       .  S
C436        C437   1.406       .  A
C436        F452   1.358       .  S
C437        C438   1.405       .  A
C438        F441   1.358       .  S
C439        C442   1.403       .  A
C439        C446   1.402       .  A
C442        C443   1.399       .  A
C442        F447   1.358       .  S
C443        C444   1.409       .  A
C443        F449   1.358       .  S
C444        C445   1.410       .  A
C445        C446   1.395       .  A
C445        F448   1.358       .  S
C446        F450   1.358       .  S
C453        C454   1.402       .  A
C453        C458   1.393       .  A
C453        F471   1.358       .  S
C454        C459   1.476       .  S
C454        C455   1.404       .  A
C455        C456   1.398       .  A
C455        F460   1.358       .  S
C456        C457   1.412       .  A
C456        F472   1.358       .  S
C457        C458   1.412       .  A
C458        F461   1.358       .  S
C459        C462   1.403       .  A
C459        C466   1.404       .  A
C462        C463   1.395       .  A
C462        F467   1.358       .  S
C463        C464   1.410       .  A
C463        F469   1.358       .  S
C464        C465   1.408       .  A
C465        C466   1.396       .  A
C465        F468   1.358       .  S
C466        F470   1.358       .  S
C473        C474   1.401       .  A
C473        C478   1.393       .  A
C473        F491   1.358       .  S
C474        C479   1.468       .  S
C474        C475   1.402       .  A
C475        C476   1.396       .  A
C475        F480   1.358       .  S
C476        C477   1.408       .  A
C476        F492   1.357       .  S
C477        C478   1.410       .  A
C478        F481   1.358       .  S
C479        C482   1.404       .  A
C479        C486   1.401       .  A
C482        C483   1.396       .  A
C482        F487   1.358       .  S
C483        C484   1.406       .  A
C483        F489   1.358       .  S
C484        C485   1.406       .  A
C485        C486   1.395       .  A
C485        F488   1.358       .  S
C486        F490   1.358       .  S
C493        C494   1.406       .  A
C493        C498   1.401       .  A
C493        F511   1.358       .  S
C494        C499   1.485       .  S
C494        C495   1.404       .  A
C495        C496   1.398       .  A
C495        F500   1.358       .  S
C496        C497   1.412       .  A
C496        F512   1.358       .  S
C497        C498   1.412       .  A
C498        F501   1.358       .  S
C499        C502   1.406       .  A
C499        C506   1.404       .  A
C502        C503   1.401       .  A
C502        F507   1.358       .  S
C503        C504   1.413       .  A
C503        F509   1.357       .  S
C504        C505   1.414       .  A
C505        C506   1.396       .  A
C505        F508   1.358       .  S
C506        F510   1.358       .  S
C513        C514   1.400       .  A
C513        C518   1.398       .  A
C513        F531   1.358       .  S
C514        C519   1.474       .  S
C514        C515   1.401       .  A
C515        C516   1.400       .  A
C515        F520   1.358       .  S
C516        C517   1.413       .  A
C516        F532   1.358       .  S
C517        C518   1.415       .  A
C518        F521   1.358       .  S
C519        C522   1.402       .  A
C519       C1158   1.398       .  A
C522        C523   1.404       .  A
C522        F527   1.357       .  S
C523       C1156   1.413       .  A
C523        F529   1.357   1_545  S
C524        C525   1.416       .  A
C524       C1155   1.414       .  A
C525        C526   1.395       .  A
C525        F528   1.358       .  S
C526       C1151   1.400       .  A
C526        F530   1.358       .  S
C533        C534   1.405       .  A
C533        C538   1.402       .  A
C533        F551   1.358       .  S
C534        C539   1.481       .  S
C534        C535   1.401       .  A
C535        C536   1.397       .  A
C535        F540   1.358       .  S
C536        C537   1.415       .  A
C536        F552   1.358       .  S
C537        C538   1.412       .  A
C538        F541   1.357       .  S
C539        C542   1.407   1_545  A
C539        C546   1.402       .  A
C542        C543   1.402       .  A
C542        F547   1.358       .  S
C543        C544   1.407       .  A
C543       F1181   1.358       .  S
C544        C545   1.409   1_565  A
C545        C546   1.396       .  A
C545        F548   1.358       .  S
C546        F550   1.358       .  S
F549       C1175   1.358       .  S
C553        C554   1.403       .  A
C553        C558   1.395       .  A
C553        F571   1.358       .  S
C554        C559   1.483       .  S
C554        C555   1.407       .  A
C555        C556   1.402       .  A
C555        F560   1.358       .  S
C556        C557   1.410       .  A
C556        F572   1.358       .  S
C557        C558   1.412       .  A
C558        F561   1.358       .  S
C559        C562   1.406       .  A
C559        C566   1.403       .  A
C562        C563   1.401       .  A
C562        F567   1.358       .  S
C563        C564   1.411       .  A
C563        F569   1.358       .  S
C564        C565   1.414       .  A
C565        C566   1.397       .  A
C565        F568   1.358       .  S
C566        F570   1.358       .  S
C573        C574   1.400       .  A
C573        C578   1.398       .  A
C573        F591   1.358       .  S
C574        C579   1.459       .  S
C574        C575   1.398       .  A
C575        C576   1.387       .  A
C575        F580   1.359       .  S
C576        C577   1.407       .  A
C576        F592   1.357       .  S
C577        C578   1.410       .  A
C578        F581   1.358       .  S
C579        C582   1.401       .  A
C579        C586   1.400       .  A
C582        C583   1.395       .  A
C582        F587   1.358       .  S
C583        C584   1.406       .  A
C583        F589   1.358       .  S
C584        C585   1.406       .  A
C585        C586   1.390       .  A
C585        F588   1.358       .  S
C586        F590   1.358       .  S
C593        C594   1.399       .  A
C593        C598   1.394       .  A
C593        F611   1.358       .  S
C594        C599   1.467       .  S
C594        C595   1.401       .  A
C595        C596   1.398       .  A
C595        F600   1.358       .  S
C596        C597   1.412       .  A
C596        F612   1.358       .  S
C597        C598   1.411       .  A
C598        F601   1.358   1_545  S
C599        C602   1.400       .  A
C599        C606   1.403       .  A
C602        C603   1.391       .  A
C602        F607   1.358       .  S
C603        C604   1.407       .  A
C603        F609   1.357       .  S
C604        C605   1.407       .  A
C605        C606   1.400       .  A
C605        F608   1.358       .  S
C606        F610   1.357       .  S
C613        C614   1.404       .  A
C613        C618   1.395       .  A
C613        F631   1.358       .  S
C614        C619   1.469       .  S
C614        C615   1.404       .  A
C615        C616   1.392       .  A
C615        F620   1.359       .  S
C616        C617   1.405       .  A
C616        F632   1.358       .  S
C617        C618   1.405       .  A
C618        F621   1.358       .  S
C619        C622   1.402       .  A
C619        C626   1.401       .  A
C622        C623   1.395       .  A
C622        F627   1.358       .  S
C623        C624   1.410       .  A
C623        F629   1.358       .  S
C624        C625   1.413       .  A
C625        C626   1.392       .  A
C625        F628   1.358   1_655  S
C626        F630   1.359       .  S
C633        N634   1.354       .  A
C633        N638   1.358       .  A
C633       C1236   1.471       .  S
N634        C635   1.353       .  A
C635        N636   1.354       .  A
C635       C1209   1.482       .  S
N636        C637   1.357       .  A
C637        N638   1.360       .  A
C637       C1249   1.471       .  S
O639       Ni645   1.918       .  S
O639        C660   1.268       .  A
O640       Ni663   1.903       .  S
O640        C649   1.268       .  A
O641       Ni645   1.919       .  S
O641       Ni663   1.912       .  S
O641       Ni657   1.903       .  S
O641        H664   0.966       .  S
C642       C1216   1.466       .  S
C642        O659   1.262       .  A
C642        O651   1.272       .  A
O643       Ni662   1.924       .  S
O643        C649   1.271       .  A
O644       Ni662   1.900       .  S
O644        C646   1.269       .  A
Ni645       O648   1.918       .  S
Ni645       O650   1.900       .  S
C646       C1129   1.484       .  S
C646        O656   1.278       .  A
O647       Ni663   1.904       .  S
O647        C653   1.268       .  A
O648        C653   1.270       .  A
C649       C1169   1.490       .  S
O650        C652   1.268       .  A
O651       Ni662   1.935       .  S
C652       C1149   1.490       .  S
C652        O658   1.277       .  A
C653       C1109   1.471       .  S
H654        O655   0.966       .  S
O655       Ni663   1.916       .  S
O655       Ni657   1.910       .  S
O655       Ni662   1.920       .  S
O656       Ni657   1.954       .  S
Ni657       O661   1.899       .  S
Ni657       O659   1.892       .  S
O658       Ni663   1.947       .  S
C660       C1196   1.477       .  S
C660        O661   1.264       .  A
C665        N666   1.361       .  A
C665        N670   1.357       .  A
C665       C1069   1.487       .  S
N666        C667   1.362       .  A
C667        N668   1.358       .  A
C667       C1096   1.479       .  S
N668        C669   1.354       .  A
C669        N670   1.354       .  A
C669       C1116   1.469       .  S
C671        N672   1.358   1_545  A
C671        N676   1.356       .  A
C671       C1049   1.481       .  S
N672        C673   1.360       .  A
C673        N674   1.359       .  A
C673       C1189   1.479       .  S
N674        C675   1.356       .  A
C675        N676   1.355   1_565  A
C675       C1029   1.484   1_565  S
O677       Ni683   1.937   1_455  S
O678       Ni701   1.903       .  S
O678        C687   1.269       .  A
O679       Ni683   1.904   1_565  S
O679       Ni701   1.898       .  S
O679       Ni695   1.893   1_655  S
C680        C969   1.481       .  S
C680        O697   1.266       .  A
C680        O689   1.270       .  A
O681       Ni700   1.911       .  S
O681        C687   1.269   1_455  A
O682       Ni700   1.902       .  S
Ni683       O686   1.920       .  S
Ni683       O688   1.901   1_545  S
C684        C989   1.482       .  S
C684        O694   1.281       .  A
O685       Ni701   1.916       .  S
O685        C691   1.276       .  A
O686        C691   1.277   1_545  A
C687       C1256   1.484       .  S
O688        C690   1.268       .  A
O689       Ni700   1.927       .  S
C690       C1016   1.491       .  S
C690        O696   1.272       .  A
C691       C1036   1.483       .  S
H692        O693   0.964       .  S
O693       Ni701   1.926   1_455  S
O693       Ni695   1.905       .  S
O693       Ni700   1.911       .  S
Ni695       O697   1.906       .  S
O696       Ni701   1.927       .  S
C698       C1089   1.487       .  S
C698        O699   1.266       .  A
C703        N704   1.359       .  A
C703        C956   1.486       .  S
N704        C705   1.357       .  A
C705        C976   1.488       .  S
N706        C707   1.358       .  A
C707        N708   1.361       .  A
C707       C1176   1.477       .  S
C709        N710   1.356       .  A
C709        N714   1.361       .  A
C709       C1009   1.493       .  S
N710        C711   1.354       .  A
C711        N712   1.355       .  A
C711        C909   1.479       .  S
N712        C713   1.358       .  A
C713        N714   1.361       .  A
C713        C929   1.472       .  S
O715       Ni721   1.917       .  S
O715        C736   1.270       .  A
O716       Ni739   1.896       .  S
O716        C725   1.267       .  A
O717       Ni721   1.893   1_556  S
O717       Ni739   1.893       .  S
O717       Ni733   1.905       .  S
O717        H740   0.966       .  S
C718        C856   1.471       .  S
C718        O735   1.273       .  A
C718        O727   1.276       .  A
O719       Ni738   1.929       .  S
O719        C725   1.273       .  A
O720       Ni738   1.905       .  S
O720        C722   1.269       .  A
Ni721       O724   1.914       .  S
Ni721       O726   1.909       .  S
C722        C949   1.495       .  S
C722        O732   1.276       .  A
O723       Ni739   1.912       .  S
O723        C729   1.274       .  A
O724        C729   1.275   1_554  A
C725        C876   1.484       .  S
O726        C728   1.269       .  A
O727       Ni738   1.922       .  S
C728       C1056   1.487       .  S
C728        O734   1.271       .  A
C729        C916   1.476       .  S
H730        O731   0.963       .  S
O731       Ni739   1.897       .  S
O731       Ni733   1.904       .  S
O731       Ni738   1.895       .  S
O732       Ni733   1.946       .  S
Ni733       O737   1.915       .  S
Ni733       O735   1.904       .  S
O734       Ni739   1.923   1_554  S
C736        C896   1.486       .  S
C736        O737   1.271   1_554  A
C741        N742   1.360       .  A
C741        N746   1.356       .  A
C741        C996   1.474       .  S
N742        C743   1.362       .  A
C743        N744   1.356       .  A
C743        C836   1.481       .  S
N744        C745   1.354       .  A
C745        N746   1.354       .  A
C745        C849   1.481       .  S
C747        N748   1.363       .  A
C747        N752   1.355       .  A
C747       C1136   1.486       .  S
C749        N750   1.356       .  A
C749        C869   1.484       .  S
C751        N752   1.353       .  A
C751        C809   1.474       .  S
C753        N754   1.363       .  A
C753        N758   1.356       .  A
C753       C1156   1.491   1_565  S
N754        C755   1.364       .  A
C755        N756   1.357       .  A
C755        C889   1.483       .  S
N756        C757   1.351       .  A
C757        N758   1.352       .  A
C757        C789   1.471       .  S
O759       Ni765   1.933       .  S
O760       Ni783   1.910       .  S
O760        C769   1.268       .  A
O761       Ni765   1.910   1_566  S
O761       Ni783   1.910       .  S
O761       Ni777   1.908   1_455  S
C762        C816   1.479       .  S
C762        O779   1.276       .  A
C762        O771   1.275       .  A
O763       Ni782   1.919   1_455  S
O763        C769   1.268       .  A
O764       Ni782   1.899       .  S
Ni765       O768   1.922       .  S
Ni765       O770   1.902   1_545  S
C766       C1229   1.477       .  S
C766        O776   1.274       .  A
O767       Ni783   1.906       .  S
O767        C773   1.271   1_556  A
O768        C773   1.275   1_545  A
C769        C829   1.486       .  S
O770        C772   1.269       .  A
O771       Ni782   1.915       .  S
C772       C1076   1.489       .  S
C772        O778   1.274       .  A
C773        C796   1.479       .  S
H774        O775   0.965       .  S
O775       Ni783   1.904   1_655  S
O775       Ni777   1.901       .  S
O775       Ni782   1.906       .  S
Ni777       O779   1.917       .  S
O778       Ni783   1.929   1_554  S
C780        C936   1.484       .  S
C780        O781   1.264   1_554  A
C785        C786   1.404       .  A
C785        C790   1.394       .  A
C785        F803   1.358       .  S
C786        C791   1.473       .  S
C786        C787   1.403       .  A
C787        C788   1.398       .  A
C787        F792   1.358       .  S
C788        C789   1.408       .  A
C788        F804   1.358       .  S
C789        C790   1.405       .  A
C790        F793   1.358       .  S
C791        C794   1.403   1_565  A
C791        C798   1.402       .  A
C794        C795   1.395       .  A
C794        F799   1.358       .  S
C795        C796   1.409   1_545  A
C796        C797   1.410       .  A
C797        C798   1.397       .  A
C797        F800   1.357   1_554  S
C798        F802   1.358       .  S
C805        C806   1.403       .  A
C805        C810   1.395       .  A
C805        F823   1.358       .  S
C806        C811   1.474       .  S
C807        C808   1.398       .  A
C807        F812   1.358       .  S
C808        F824   1.358       .  S
C809        C810   1.406       .  A
C810        F813   1.358       .  S
C811        C814   1.402       .  A
C811        C818   1.404       .  A
C814        C815   1.394       .  A
C815        C816   1.410       .  A
C815        F821   1.358       .  S
C816        C817   1.409       .  A
C817        C818   1.400       .  A
C817        F820   1.358       .  S
C818        F822   1.357       .  S
C825        C826   1.406       .  A
C825        C830   1.400       .  A
C825        F843   1.358       .  S
C826        C831   1.477       .  S
C826        C827   1.400       .  A
C827        C828   1.392       .  A
C827        F832   1.358       .  S
C828        C829   1.414       .  A
C828        F844   1.358       .  S
C829        C830   1.410       .  A
C830        F833   1.357       .  S
C831        C834   1.406       .  A
C831        C838   1.402       .  A
C834        C835   1.397       .  A
C834        F839   1.358       .  S
C835        C836   1.408       .  A
C835        F841   1.358       .  S
C836        C837   1.412       .  A
C837        C838   1.395       .  A
C837        F840   1.357       .  S
C838        F842   1.358       .  S
C845        C846   1.401       .  A
C845        C850   1.394       .  A
C845        F863   1.358       .  S
C846        C851   1.468       .  S
C846        C847   1.400       .  A
C847        C848   1.395       .  A
C847        F852   1.358       .  S
C848        C849   1.413       .  A
C848        F864   1.357       .  S
C849        C850   1.411       .  A
C850        F853   1.358       .  S
C851        C854   1.400       .  A
C851        C858   1.404       .  A
C854        C855   1.389       .  A
C854        F859   1.358       .  S
C855        C856   1.408       .  A
C855        F861   1.358       .  S
C856        C857   1.407       .  A
C857        C858   1.399       .  A
C857        F860   1.358       .  S
C858        F862   1.358       .  S
C865        C866   1.407       .  A
C865        C870   1.397       .  A
C865        F883   1.358       .  S
C866        C871   1.482       .  S
C866        C867   1.405       .  A
C867        C868   1.395       .  A
C867        F872   1.358       .  S
C868        C869   1.412       .  A
C868        F884   1.358       .  S
C869        C870   1.409       .  A
C870        F873   1.357       .  S
C871        C874   1.407       .  A
C871        C878   1.404       .  A
C874        C875   1.399       .  A
C874        F879   1.358       .  S
C875        C876   1.410       .  A
C875        F881   1.358       .  S
C876        C877   1.411       .  A
C877        C878   1.393       .  A
C877        F880   1.358       .  S
C878        F882   1.358       .  S
C885        C886   1.401       .  A
C885        C890   1.395       .  A
C885        F903   1.358       .  S
C886        C891   1.477       .  S
C886        C887   1.405       .  A
C887        C888   1.399       .  A
C887        F892   1.358       .  S
C888        C889   1.408       .  A
C888        F904   1.357       .  S
C889        C890   1.412       .  A
C890        F893   1.358       .  S
C891        C894   1.406       .  A
C891        C898   1.399       .  A
C894        C895   1.401   1_554  A
C894        F899   1.358   1_554  S
C895        C896   1.409   1_556  A
C895        F901   1.358       .  S
C896        C897   1.415       .  A
C897        C898   1.393       .  A
C897        F900   1.358       .  S
C898        F902   1.358       .  S
C905        C906   1.399       .  A
C905        C910   1.392       .  A
C905        F923   1.359       .  S
C906        C911   1.465       .  S
C906        C907   1.401       .  A
C907        C908   1.400       .  A
C907        F912   1.358   1_554  S
C908        C909   1.411       .  A
C908        F924   1.357       .  S
C909        C910   1.410       .  A
C910        F913   1.357       .  S
C911        C914   1.402       .  A
C911        C918   1.399       .  A
C914        C915   1.396       .  A
C914        F919   1.358       .  S
C915        C916   1.410   1_554  A
C915        F921   1.358   1_554  S
C916        C917   1.411   1_556  A
C917        C918   1.394       .  A
C917        F920   1.358       .  S
C918        F922   1.358       .  S
C925        C926   1.404       .  A
C925        C930   1.401       .  A
C925        F943   1.358       .  S
C926        C931   1.472       .  S
C926        C927   1.401       .  A
C927        C928   1.395       .  A
C927        F932   1.358       .  S
C928        C929   1.406       .  A
C928        F944   1.358       .  S
C929        C930   1.406       .  A
C930        F933   1.358       .  S
C931        C934   1.401       .  A
C931        C938   1.401       .  A
C934        C935   1.399       .  A
C934        F939   1.358       .  S
C935        C936   1.413       .  A
C935        F941   1.358   1_655  S
C936        C937   1.411       .  A
C937        C938   1.397       .  A
C937        F940   1.358   1_554  S
C938        F942   1.358   1_554  S
C945        C946   1.401       .  A
C945        C950   1.397       .  A
C945        F963   1.358       .  S
C946        C951   1.481       .  S
C946        C947   1.404       .  A
C947        C948   1.403       .  A
C947        F952   1.358       .  S
C948        C949   1.414       .  A
C948        F964   1.358       .  S
C949        C950   1.415       .  A
C950        F953   1.358       .  S
C951        C954   1.403       .  A
C951        C958   1.405       .  A
C954        C955   1.395       .  A
C954        F959   1.358       .  S
C955        C956   1.409       .  A
C955        F961   1.358       .  S
C956        C957   1.411       .  A
C957        C958   1.405       .  A
C957        F960   1.358       .  S
C958        F962   1.357       .  S
C965        C966   1.405       .  A
C965        C970   1.401       .  A
C966        C971   1.477       .  S
C966        C967   1.401       .  A
C967        C968   1.392       .  A
C967        F972   1.358       .  S
C968        C969   1.411       .  A
C968        F984   1.358       .  S
C969        C970   1.409       .  A
C971        C978   1.403       .  A
C974        C975   1.397       .  A
C974        F979   1.358       .  S
C975        F981   1.357       .  S
C976        C977   1.411       .  A
C977        C978   1.395       .  A
C977        F980   1.357       .  S
C978        F982   1.358       .  S
C985        C986   1.402       .  A
C985        C990   1.398       .  A
C985       F1003   1.358       .  S
C986        C991   1.472       .  S
C986        C987   1.401       .  A
C987        C988   1.398       .  A
C987        F992   1.358       .  S
C988        C989   1.412       .  A
C988       F1004   1.358       .  S
C989        C990   1.409       .  A
C990        F993   1.358       .  S
C991        C994   1.403       .  A
C991        C998   1.402       .  A
C994        C995   1.401       .  A
C994        F999   1.357       .  S
C995        C996   1.407       .  A
C995       F1001   1.357       .  S
C996        C997   1.407       .  A
C997        C998   1.395       .  A
C997       F1000   1.358       .  S
C998       F1002   1.358       .  S
C1005      C1006   1.398       .  A
C1005      C1010   1.395       .  A
C1005      F1023   1.358       .  S
C1006      C1011   1.473       .  S
C1006      C1007   1.402       .  A
C1007      C1008   1.402       .  A
C1007      F1012   1.357       .  S
C1008      C1009   1.413       .  A
C1008      F1024   1.357       .  S
C1009      C1010   1.417       .  A
C1010      F1013   1.357       .  S
C1011      C1014   1.402       .  A
C1011      C1018   1.398       .  A
C1014      C1015   1.403       .  A
C1014      F1019   1.358       .  S
C1015      C1016   1.415       .  A
C1015      F1021   1.358       .  S
C1016      C1017   1.414       .  A
C1017      C1018   1.394       .  A
C1017      F1020   1.358       .  S
C1018      F1022   1.358       .  S
C1025      C1026   1.403   1_545  A
C1025      C1030   1.392       .  A
C1025      F1043   1.358       .  S
C1026      C1031   1.479       .  S
C1026      C1027   1.404       .  A
C1027      C1028   1.401       .  A
C1027      F1032   1.358       .  S
C1028      C1029   1.411   1_565  A
C1028      F1044   1.358       .  S
C1029      C1030   1.410       .  A
C1030      F1033   1.356       .  S
C1031      C1034   1.404   1_565  A
C1031      C1038   1.405       .  A
C1034      C1035   1.395       .  A
C1034      F1039   1.358       .  S
C1035      C1036   1.410   1_545  A
C1035      F1041   1.358       .  S
C1036      C1037   1.410       .  A
C1037      C1038   1.399       .  A
C1037      F1040   1.358       .  S
C1038      F1042   1.358       .  S
C1045      C1046   1.403       .  A
C1045      C1050   1.403       .  A
C1045      F1063   1.358       .  S
C1046      C1051   1.476       .  S
C1047      C1048   1.392       .  A
C1047      F1052   1.358       .  S
C1048      C1049   1.408       .  A
C1048      F1064   1.357       .  S
C1050      F1053   1.357       .  S
C1051      C1054   1.401       .  A
C1051      C1058   1.403       .  A
C1054      C1055   1.396       .  A
C1054      F1059   1.358       .  S
C1055      C1056   1.413       .  A
C1055      F1061   1.358       .  S
C1056      C1057   1.412       .  A
C1057      C1058   1.400       .  A
C1057      F1060   1.358       .  S
C1058      F1062   1.358       .  S
C1065      C1066   1.400       .  A
C1065      C1070   1.393       .  A
C1065      F1083   1.358       .  S
C1066      C1071   1.474       .  S
C1066      C1067   1.403       .  A
C1067      C1068   1.402       .  A
C1067      F1072   1.358       .  S
C1068      C1069   1.413       .  A
C1068      F1084   1.357       .  S
C1069      C1070   1.413       .  A
C1070      F1073   1.358       .  S
C1071      C1074   1.402       .  A
C1071      C1078   1.400       .  A
C1074      C1075   1.398       .  A
C1074      F1079   1.358       .  S
C1075      C1076   1.412       .  A
C1075      F1081   1.358       .  S
C1076      C1077   1.415       .  A
C1077      C1078   1.397       .  A
C1077      F1080   1.358       .  S
C1078      F1082   1.358       .  S
C1085      C1086   1.404       .  A
C1085      C1090   1.398       .  A
C1085      F1103   1.358       .  S
C1086      C1091   1.479       .  S
C1086      C1087   1.403       .  A
C1087      C1088   1.397       .  A
C1087      F1092   1.358       .  S
C1088      C1089   1.414       .  A
C1088      F1104   1.358       .  S
C1089      C1090   1.411       .  A
C1090      F1093   1.358       .  S
C1091      C1094   1.404       .  A
C1091      C1098   1.406       .  A
C1094      C1095   1.397       .  A
C1094      F1099   1.358       .  S
C1095      C1096   1.409       .  A
C1095      F1101   1.358       .  S
C1096      C1097   1.407       .  A
C1097      C1098   1.398       .  A
C1097      F1100   1.358       .  S
C1098      F1102   1.358       .  S
C1105      C1106   1.402       .  A
C1105      C1110   1.393       .  A
C1105      F1123   1.358       .  S
C1106      C1111   1.472       .  S
C1106      C1107   1.404       .  A
C1107      C1108   1.398       .  A
C1107      F1112   1.358       .  S
C1108      C1109   1.406       .  A
C1108      F1124   1.357       .  S
C1109      C1110   1.408       .  A
C1110      F1113   1.359       .  S
C1111      C1114   1.404       .  A
C1111      C1118   1.403       .  A
C1114      C1115   1.395       .  A
C1114      F1119   1.358       .  S
C1115      C1116   1.405       .  A
C1115      F1121   1.358       .  S
C1116      C1117   1.406       .  A
C1117      C1118   1.398       .  A
C1117      F1120   1.358       .  S
C1118      F1122   1.358       .  S
C1125      C1126   1.404       .  A
C1125      C1130   1.402       .  A
C1125      F1143   1.358       .  S
C1126      C1131   1.478       .  S
C1126      C1127   1.401       .  A
C1127      C1128   1.398       .  A
C1127      F1132   1.358       .  S
C1128      C1129   1.410       .  A
C1128      F1144   1.358       .  S
C1129      C1130   1.411       .  A
C1130      F1133   1.358       .  S
C1131      C1134   1.403       .  A
C1131      C1138   1.402       .  A
C1134      C1135   1.402       .  A
C1134      F1139   1.357       .  S
C1135      C1136   1.410       .  A
C1135      F1141   1.357       .  S
C1136      C1137   1.412       .  A
C1137      C1138   1.397       .  A
C1137      F1140   1.358       .  S
C1138      F1142   1.358       .  S
C1145      C1146   1.401       .  A
C1145      C1150   1.399       .  A
C1145      F1163   1.358       .  S
C1146      C1151   1.480       .  S
C1146      C1147   1.405       .  A
C1147      C1148   1.401       .  A
C1147      F1152   1.358       .  S
C1148      C1149   1.411       .  A
C1148      F1164   1.358       .  S
C1149      C1150   1.414       .  A
C1150      F1153   1.358       .  S
C1151      C1154   1.404       .  A
C1154      C1155   1.403       .  A
C1154      F1159   1.358       .  S
C1155      F1161   1.357       .  S
C1156      C1157   1.415       .  A
C1157      C1158   1.393       .  A
C1157      F1160   1.358       .  S
C1158      F1162   1.359       .  S
C1165      C1166   1.405       .  A
C1165      C1170   1.399       .  A
C1165      F1183   1.358       .  S
C1166      C1171   1.481       .  S
C1166      C1167   1.402       .  A
C1167      C1168   1.398       .  A
C1167      F1172   1.358       .  S
C1168      C1169   1.414       .  A
C1168      F1184   1.358       .  S
C1169      C1170   1.411       .  A
C1170      F1173   1.357       .  S
C1171      C1174   1.407       .  A
C1171      C1178   1.404       .  A
C1174      C1175   1.400       .  A
C1174      F1179   1.358       .  S
C1175      C1176   1.406       .  A
C1176      C1177   1.408       .  A
C1177      C1178   1.396       .  A
C1177      F1180   1.358       .  S
C1178      F1182   1.358       .  S
C1185      C1186   1.401       .  A
C1185      C1190   1.394       .  A
C1185      F1203   1.358       .  S
C1186      C1191   1.472       .  S
C1186      C1187   1.403       .  A
C1187      C1188   1.397       .  A
C1187      F1192   1.358       .  S
C1188      C1189   1.409       .  A
C1188      F1204   1.358       .  S
C1189      C1190   1.410       .  A
C1190      F1193   1.358       .  S
C1191      C1194   1.404       .  A
C1191      C1198   1.402       .  A
C1194      C1195   1.397       .  A
C1194      F1199   1.358       .  S
C1195      C1196   1.409       .  A
C1195      F1201   1.358       .  S
C1196      C1197   1.410       .  A
C1197      C1198   1.394       .  A
C1197      F1200   1.358       .  S
C1198      F1202   1.358       .  S
C1205      C1206   1.400       .  A
C1205      C1210   1.398       .  A
C1205      F1223   1.358       .  S
C1206      C1211   1.466       .  S
C1206      C1207   1.399       .  A
C1207      C1208   1.391       .  A
C1207      F1212   1.358       .  S
C1208      C1209   1.412       .  A
C1208      F1224   1.358       .  S
C1209      C1210   1.414       .  A
C1210      F1213   1.358       .  S
C1211      C1214   1.403       .  A
C1211      C1218   1.401       .  A
C1214      C1215   1.398       .  A
C1214      F1219   1.358       .  S
C1215      C1216   1.407       .  A
C1215      F1221   1.358       .  S
C1216      C1217   1.405       .  A
C1217      C1218   1.392       .  A
C1217      F1220   1.358       .  S
C1218      F1222   1.358       .  S
C1225      C1226   1.399       .  A
C1225      C1230   1.395       .  A
C1225      F1243   1.358       .  S
C1226      C1231   1.467       .  S
C1226      C1227   1.402       .  A
C1227      C1228   1.397       .  A
C1227      F1232   1.358       .  S
C1228      C1229   1.409       .  A
C1228      F1244   1.358       .  S
C1229      C1230   1.410       .  A
C1230      F1233   1.358       .  S
C1231      C1234   1.400       .  A
C1231      C1238   1.403       .  A
C1234      C1235   1.392       .  A
C1234      F1239   1.358       .  S
C1235      C1236   1.407       .  A
C1235      F1241   1.358       .  S
C1236      C1237   1.407       .  A
C1237      C1238   1.401       .  A
C1237      F1240   1.358       .  S
C1238      F1242   1.357       .  S
C1245      C1246   1.406       .  A
C1245      C1250   1.397       .  A
C1245      F1263   1.358       .  S
C1246      C1251   1.475       .  S
C1246      C1247   1.404       .  A
C1247      C1248   1.393       .  A
C1247      F1252   1.358       .  S
C1248      C1249   1.406       .  A
C1248      F1264   1.358       .  S
C1249      C1250   1.406       .  A
C1250      F1253   1.358       .  S
C1251      C1254   1.405       .  A
C1251      C1258   1.401       .  A
C1254      C1255   1.397       .  A
C1254      F1259   1.358       .  S
C1255      C1256   1.410       .  A
C1255      F1261   1.358       .  S
C1256      C1257   1.415       .  A
C1257      C1258   1.393       .  A
C1257      F1260   1.358   1_655  S
C1258      F1262   1.358   1_655  S
