geometry optimzed in LAMMPS
_audit_creation_date              2020-11-30 
_audit_creation_method            'lammps2cif' 
_symmetry_space_group_name_H-M    'P1' 
_symmetry_Int_Tables_number       1 
_symmetry_cell_setting            triclinic 
loop_ 
_symmetry_equiv_pos_as_xyz 
  x,y,z 
_cell_length_a                    45.608755334472804 
_cell_length_b                    45.46997569851256 
_cell_length_c                    45.16718886733409 
_cell_angle_alpha                 90.99820142186987 
_cell_angle_beta                  90.34809898382922 
_cell_angle_gamma                 90.58128934623396 
loop_ 
_atom_site_label 
_atom_site_type_symbol 
_atom_site_fract_x 
_atom_site_fract_y 
_atom_site_fract_z 
_atom_site_charge 
C1          C  0.80443394  0.05890638  0.74383074     0.02040
C2          C  0.78898856  0.07278581  0.76696870     0.02040
C3          C  0.76582360  0.05778657  0.78103714     0.02040
C4          C  0.75696403  0.02939923  0.77066389     0.02040
C5          C  0.77200206  0.01566116  0.74706382     0.02040
C6          C  0.79481255  0.03100282  0.73291842     0.02040
C7          C  0.76689849  0.80014777  0.02349862     0.02040
C8          C  0.74028559  0.81169026  0.01055269     0.02040
C9          C  0.72801333  0.79888290  0.98390498     0.02040
C10         C  0.74380820  0.77668334  0.96865548     0.02040
C11         C  0.77031539  0.76537894  0.98144176     0.02040
C12         C  0.78253459  0.77744082  0.00833418     0.02040
C13         C  0.02779976  0.78318502  0.72020108     0.02040
C14         C  0.04172622  0.76963229  0.74563329     0.02040
C15         C  0.02793323  0.74386795  0.75882897     0.02040
C16         C  0.00144359  0.73059369  0.74566112     0.02040
C17         C  0.98745072  0.74447057  0.72059255     0.02040
C18         C  0.00144081  0.76989057  0.70693544     0.02040
C19         C  0.99275752  0.26270428  0.19736314     0.02040
C20         C  0.02074111  0.27298462  0.20885536     0.02040
C21         C  0.03511876  0.25766124  0.23181623     0.02040
C22         C  0.02004542  0.23303564  0.24372873     0.02040
C23         C  0.99227266  0.22304691  0.23251991     0.02040
C24         C  0.97803460  0.23813761  0.20974019     0.02040
C25         C  0.00398368  0.99995840  0.01127024     0.02040
C26         C  0.98487049  0.01856753  0.99651450     0.02040
C27         C  0.98639606  0.02156329  0.96575309     0.02040
C28         C  0.00797114  0.00675487  0.94985593     0.02040
C29         C  0.02890666  0.99047020  0.96498448     0.02040
C30         C  0.02606650  0.98600638  0.99537483     0.02040
C31         C  0.78170858  0.52942529  0.24682474     0.02040
C32         C  0.79384907  0.51743651  0.21955435     0.02040
C33         C  0.77771562  0.49557680  0.20287672     0.02040
C34         C  0.75263936  0.48116042  0.21602571     0.02040
C35         C  0.74152030  0.49130459  0.24402605     0.02040
C36         C  0.75605028  0.51585409  0.25932179     0.02040
C37         C  0.52262484  0.48665733  0.99998847     0.02040
C38         C  0.53673758  0.50001199  0.97534712     0.02040
C39         C  0.52207557  0.52341803  0.96087588     0.02040
C40         C  0.49452261  0.53464071  0.97226104     0.02040
C41         C  0.48061944  0.52145867  0.99706734     0.02040
C42         C  0.49533447  0.49826466  0.01169690     0.02040
C43         C  0.54684316  0.98722703  0.46947759     0.02040
C44         C  0.53394863  0.97295897  0.49496112     0.02040
C45         C  0.50762234  0.98465300  0.50827199     0.02040
C46         C  0.49242321  0.00826088  0.49391929     0.02040
C47         C  0.50502945  0.02231712  0.46798185     0.02040
C48         C  0.53185990  0.01142257  0.45512871     0.02040
C49         C  0.50394349  0.22840446  0.78710690     0.02040
C50         C  0.51368633  0.25583364  0.77641994     0.02040
C51         C  0.50307504  0.26633898  0.74909640     0.02040
C52         C  0.48547193  0.24802703  0.73051435     0.02040
C53         C  0.48039515  0.21843539  0.73946478     0.02040
C54         C  0.48962532  0.20855917  0.76771278     0.02040
C55         C  0.49643922  0.70734533  0.23394521     0.02040
C56         C  0.50719790  0.69470436  0.25983371     0.02040
C57         C  0.52137247  0.71214852  0.28146962     0.02040
C58         C  0.52977186  0.74117071  0.27435678     0.02040
C59         C  0.52010800  0.75356582  0.24761446     0.02040
C60         C  0.50374158  0.73646645  0.22723937     0.02040
C61         C  0.23057267  0.26606651  0.95464033     0.02040
C62         C  0.24648429  0.24331159  0.93897378     0.02040
C63         C  0.27330022  0.23214178  0.95152342     0.02040
C64         C  0.28570424  0.24449147  0.97871631     0.02040
C65         C  0.26880116  0.26496130  0.99567154     0.02040
C66         C  0.24197825  0.27694119  0.98277789     0.02040
C67         C  0.28231758  0.48192197  0.67683929     0.02040
C68         C  0.26910612  0.49542256  0.70234245     0.02040
C69         C  0.28279114  0.51975491  0.71716539     0.02040
C70         C  0.30791554  0.53343832  0.70469663     0.02040
C71         C  0.32089605  0.52066119  0.67871822     0.02040
C72         C  0.30778203  0.49503013  0.66413609     0.02040
C73         C  0.04333563  0.48815027  0.50061157     0.02040
C74         C  0.02217675  0.50513439  0.51509657     0.02040
C75         C  0.01170148  0.53092706  0.50147479     0.02040
C76         C  0.02351461  0.54050643  0.47399461     0.02040
C77         C  0.04495300  0.52348926  0.45927714     0.02040
C78         C  0.05584766  0.49772352  0.47359035     0.02040
C79         C  0.24899102  0.75424884  0.47189398     0.02040
C80         C  0.23587704  0.73991893  0.44723533     0.02040
C81         C  0.24706949  0.71303308  0.43647053     0.02040
C82         C  0.26950196  0.69932667  0.45238827     0.02040
C83         C  0.28303381  0.71389284  0.47672899     0.02040
C84         C  0.27206437  0.74088840  0.48703089     0.02040
C85         C  0.78284564  0.23447182  0.50581805     0.02040
C86         C  0.75844603  0.24751100  0.49117127     0.02040
C87         C  0.74482204  0.27316859  0.50310722     0.02040
C88         C  0.75715009  0.28767953  0.52830013     0.02040
C89         C  0.78035125  0.27379256  0.54390446     0.02040
C90         C  0.79394168  0.24764605  0.53225634     0.02040
C91         C  0.63388095  0.96958245  0.76496261     0.02880
C92         C  0.66364924  0.97782539  0.76380056    -0.13270
C93         C  0.67591420  0.99552030  0.78666830     0.00380
C94         C  0.65898338  0.00264214  0.81153187    -0.11790
C95         C  0.62918754  0.99522229  0.81170613     0.02870
C96         C  0.61641970  0.98088245  0.78750237    -0.11210
H97         H  0.67733565  0.96932541  0.74618285     0.08470
H98         H  0.66892959  0.01286994  0.83090729     0.06000
H99         H  0.59366956  0.97376096  0.78904865     0.05840
C100        C  0.64270665  0.81405104  0.95186098     0.02880
C101        C  0.63133960  0.80283358  0.92415443    -0.13270
C102        C  0.60067441  0.80477127  0.91748476     0.00380
C103        C  0.58235756  0.81655198  0.93894060    -0.11790
C104        C  0.59357020  0.83254165  0.96285447     0.02870
C105        C  0.62362580  0.83049669  0.97006463    -0.11210
H106        H  0.64599026  0.79311711  0.90810198     0.08470
H107        H  0.55931285  0.81903080  0.93360666     0.06000
H108        H  0.63231279  0.84281811  0.98896635     0.05840
C109        C  0.11235588  0.97570496  0.94562596     0.02880
C110        C  0.12613017  0.95868114  0.96701859    -0.13270
C111        C  0.15623391  0.95350452  0.96500307     0.00380
C112        C  0.17268219  0.96805275  0.94377930    -0.11790
C113        C  0.15840774  0.98156607  0.92040227     0.02870
C114        C  0.12831608  0.98689842  0.92206632    -0.11210
H115        H  0.11315231  0.94701054  0.98313636     0.08470
H116        H  0.19560204  0.96235748  0.94123823     0.06000
H117        H  0.11707370  0.99725869  0.90384309     0.05840
C118        C  0.17047984  0.79419519  0.80811881     0.02880
C119        C  0.14066907  0.78678179  0.80090852    -0.13270
C120        C  0.12582916  0.80071662  0.77681606     0.00380
C121        C  0.14084813  0.82506182  0.76345224    -0.11790
C122        C  0.17029774  0.83266778  0.77201926     0.02870
C123        C  0.18497516  0.81473182  0.79135726    -0.11210
H124        H  0.12927828  0.77043845  0.81373908     0.08470
H125        H  0.12969165  0.83807983  0.74712109     0.06000
H126        H  0.20778851  0.81987270  0.79663829     0.05840
C127        C  0.77542934  0.63708893  0.93868512     0.02880
C128        C  0.77311094  0.66738151  0.94346306    -0.13270
C129        C  0.79518648  0.68268153  0.95904182     0.00380
C130        C  0.82064719  0.66760470  0.96798531    -0.11790
C131        C  0.82231013  0.63686033  0.96378092     0.02870
C132        C  0.79813459  0.62174564  0.95203785    -0.11210
H133        H  0.75552047  0.67927855  0.93289515     0.08470
H134        H  0.83915380  0.67936557  0.97731311     0.06000
H135        H  0.80023216  0.59840541  0.94707199     0.05840
C136        C  0.96981761  0.64614341  0.77175161     0.02880
C137        C  0.94301711  0.63201678  0.76153242    -0.13270
C138        C  0.93864618  0.60084956  0.76510968     0.00380
C139        C  0.96202996  0.58489315  0.77580226    -0.11790
C140        C  0.98257621  0.59872188  0.79402289     0.02870
C141        C  0.98754576  0.62946355  0.79121866    -0.11210
H142        H  0.92607594  0.64482245  0.75121967     0.08470
H143        H  0.95942024  0.56123623  0.77776072     0.06000
H144        H  0.00459845  0.64025132  0.80433085     0.05840
C145        C  0.97832256  0.14336895  0.91858834     0.02880
C146        C  0.97744654  0.11269221  0.91921334    -0.13270
C147        C  0.95988619  0.09872253  0.94009570     0.00380
C148        C  0.94189012  0.11521631  0.95882887    -0.11790
C149        C  0.94336614  0.14588393  0.95815213     0.02870
C150        C  0.96319111  0.15973247  0.93965308    -0.11210
H151        H  0.98963264  0.09995544  0.90314952     0.08470
H152        H  0.92618961  0.10438436  0.97291889     0.06000
H153        H  0.96260712  0.18352081  0.93783144     0.05840
C154        C  0.83224097  0.20560686  0.76866259     0.02880
C155        C  0.81442900  0.22132857  0.78809728    -0.13270
C156        C  0.79495867  0.20687683  0.80641851     0.00380
C157        C  0.78892214  0.17683772  0.80160213    -0.11790
C158        C  0.80410576  0.16113953  0.77970675     0.02870
C159        C  0.82611082  0.17541973  0.76343850    -0.11210
H160        H  0.81998148  0.24389825  0.79380352     0.08470
H161        H  0.77430335  0.16531872  0.81640142     0.06000
H162        H  0.83955658  0.16270282  0.74833617     0.05840
C163        C  0.80105474  0.00056105  0.64886952     0.02880
C164        C  0.78625389  0.97438212  0.64004831    -0.13270
C165        C  0.78604254  0.96556406  0.60997040     0.00380
C166        C  0.79887503  0.98393413  0.58928187    -0.11790
C167        C  0.81773531  0.00645116  0.59883072     0.02870
C168        C  0.81667772  0.01657440  0.62811699    -0.11210
H169        H  0.77578554  0.96081764  0.65624669     0.08470
H170        H  0.80045315  0.97599963  0.56653220     0.06000
H171        H  0.83142171  0.03414959  0.63546302     0.05840
C172        C  0.94570921  0.79093265  0.57609355     0.02880
C173        C  0.95019397  0.78545158  0.60677215    -0.13270
C174        C  0.97378161  0.79954918  0.62260524     0.00380
C175        C  0.98831832  0.82332095  0.60808891    -0.11790
C176        C  0.98325448  0.82826060  0.57731790     0.02870
C177        C  0.96571363  0.80850385  0.56152188    -0.11210
H178        H  0.93535255  0.77082532  0.61816137     0.08470
H179        H  0.00301216  0.83780622  0.62046497     0.06000
H180        H  0.96217202  0.81238370  0.53810624     0.05840
C181        C  0.98883700  0.98627686  0.09840925     0.02880
C182        C  0.96742018  0.00403203  0.11148745    -0.13270
C183        C  0.95883577  0.99870572  0.14056881     0.00380
C184        C  0.97367609  0.97786284  0.15696721    -0.11790
C185        C  0.98961622  0.95625915  0.14218378     0.02870
C186        C  0.99892672  0.96140825  0.11315433    -0.11210
H187        H  0.95568234  0.01991021  0.09839355     0.08470
H188        H  0.96586896  0.97347564  0.17910104     0.06000
H189        H  0.01166758  0.94501382  0.10136097     0.05840
C190        C  0.79663639  0.81518088  0.10994986     0.02880
C191        C  0.78257577  0.83551976  0.12896957    -0.13270
C192        C  0.78832291  0.83534311  0.15968297     0.00380
C193        C  0.80607208  0.81385430  0.17123407    -0.11790
C194        C  0.82577980  0.79956898  0.15294539     0.02870
C195        C  0.82032569  0.79868811  0.12185725    -0.11210
H196        H  0.76810393  0.85190353  0.11993970     0.08470
H197        H  0.81017645  0.81397753  0.19498663     0.06000
H198        H  0.83450458  0.78620536  0.10731034     0.05840
C199        C  0.39395865  0.06224950  0.22046533     0.02880
C200        C  0.36460707  0.05368258  0.22199889    -0.13270
C201        C  0.35295834  0.03360347  0.20111555     0.00380
C202        C  0.37057365  0.02480646  0.17653004    -0.11790
C203        C  0.40043182  0.03414175  0.17545189     0.02870
C204        C  0.41224279  0.04927837  0.19962040    -0.11210
H205        H  0.35061637  0.06379383  0.23849643     0.08470
H206        H  0.36119950  0.01183491  0.15850648     0.06000
H207        H  0.43503181  0.05643962  0.19866245     0.05840
C208        C  0.40334632  0.21625386  0.06208832     0.02880
C209        C  0.38540539  0.23360056  0.04216369    -0.13270
C210        C  0.35832104  0.22122270  0.02939950     0.00380
C211        C  0.34974856  0.19318074  0.03793474    -0.11790
C212        C  0.36788467  0.17600575  0.05520891     0.02870
C213        C  0.39339090  0.18795829  0.06789815    -0.11210
H214        H  0.39214801  0.25576467  0.03687513     0.08470
H215        H  0.33050290  0.18283179  0.02779775     0.06000
H216        H  0.40731107  0.17399449  0.08110307     0.05840
C217        C  0.23431724  0.40529005  0.00801745     0.02880
C218        C  0.23602400  0.37548142  0.00131908    -0.13270
C219        C  0.21029431  0.35890791  0.99793174     0.00380
C220        C  0.18268316  0.37408830  0.99768287    -0.11790
C221        C  0.18255068  0.40577159  0.99860254     0.02870
C222        C  0.20952914  0.42051774  0.99942798    -0.11210
H223        H  0.25653169  0.36439895  0.00574944     0.08470
H224        H  0.16223577  0.36184202  0.99738118     0.06000
H225        H  0.20971897  0.44430144  0.00219508     0.05840
C226        C  0.07635949  0.40246827  0.18934236     0.02880
C227        C  0.07402513  0.37215792  0.19649558    -0.13270
C228        C  0.04907054  0.35548718  0.18677736     0.00380
C229        C  0.02889932  0.36824026  0.16760245    -0.11790
C230        C  0.03185916  0.39774005  0.16034778     0.02870
C231        C  0.05341370  0.41519600  0.17395545    -0.11210
H232        H  0.09146152  0.36169374  0.20867957     0.08470
H233        H  0.01206046  0.35483415  0.15676621     0.06000
H234        H  0.05583255  0.43779508  0.16690236     0.05840
C235        C  0.06814394  0.22482525  0.37062669     0.02880
C236        C  0.06441865  0.22564890  0.34002510    -0.13270
C237        C  0.03909273  0.21342033  0.32729539     0.00380
C238        C  0.01875525  0.19856611  0.34491843    -0.11790
C239        C  0.02319202  0.19803719  0.37571592     0.02870
C240        C  0.04533677  0.21542833  0.38842263    -0.11210
H241        H  0.08179931  0.23398762  0.32617566     0.08470
H242        H  0.00160392  0.18516161  0.33465982     0.06000
H243        H  0.04921350  0.21450525  0.41214675     0.05840
C244        C  0.20828100  0.04135415  0.35125544     0.02880
C245        C  0.18469053  0.02985320  0.36860988    -0.13270
C246        C  0.17944365  0.04113084  0.39776409     0.00380
C247        C  0.19759132  0.06281045  0.40942392    -0.11790
C248        C  0.21794194  0.07747716  0.39257090     0.02870
C249        C  0.22375394  0.06672176  0.36317574    -0.11210
H250        H  0.17064638  0.01256179  0.35958687     0.08470
H251        H  0.19288151  0.07123067  0.43158022     0.06000
H252        H  0.24004586  0.07773630  0.34991097     0.05840
C253        C  0.41400113  0.68247341  0.50829980     0.02880
C254        C  0.38462041  0.68151614  0.49903583    -0.13270
C255        C  0.36602679  0.70473823  0.50644358     0.00380
C256        C  0.37652601  0.72824739  0.52442747    -0.11790
C257        C  0.40619697  0.72918979  0.53298980     0.02870
C258        C  0.42508321  0.70788112  0.52207786    -0.11210
H259        H  0.37590024  0.66211106  0.48764580     0.08470
H260        H  0.36168558  0.74484001  0.53265569     0.06000
H261        H  0.44741105  0.70810189  0.53047414     0.05840
C262        C  0.45537215  0.53665057  0.66708020     0.02880
C263        C  0.42532108  0.53016327  0.67025076    -0.13270
C264        C  0.40469332  0.55264999  0.67251767     0.00380
C265        C  0.41457442  0.58229765  0.67519801    -0.11790
C266        C  0.44507914  0.58861875  0.67465245     0.02870
C267        C  0.46478531  0.56576360  0.67129176    -0.11210
H268        H  0.41750437  0.50763375  0.66844764     0.08470
H269        H  0.39896892  0.59998898  0.67731607     0.06000
H270        H  0.48773781  0.57164708  0.66961021     0.05840
C271        C  0.66201883  0.29030536  0.47018482     0.02880
C272        C  0.64453301  0.31478797  0.47777587    -0.13270
C273        C  0.61500170  0.31581387  0.46804494     0.00380
C274        C  0.60310963  0.29199072  0.45235464    -0.11790
C275        C  0.62136225  0.27092595  0.43996449     0.02870
C276        C  0.65057406  0.26905374  0.44997671    -0.11210
H277        H  0.65399583  0.33322287  0.49013406     0.08470
H278        H  0.58090647  0.29364064  0.44372315     0.06000
H279        H  0.66445671  0.25189258  0.44124884     0.05840
C280        C  0.61375865  0.47523259  0.27872337     0.02880
C281        C  0.64244110  0.47927959  0.26993853    -0.13270
C282        C  0.65860073  0.45535801  0.26005282     0.00380
C283        C  0.64332111  0.42706340  0.25682807    -0.11790
C284        C  0.61154801  0.42521466  0.26056002     0.02870
C285        C  0.59748837  0.45164951  0.26754971    -0.11210
H286        H  0.65372566  0.49941139  0.27692520     0.08470
H287        H  0.65560569  0.40732804  0.25220791     0.06000
H288        H  0.57457013  0.45124790  0.27374546     0.05840
C289        C  0.73459871  0.37500664  0.54677605     0.02880
C290        C  0.71501890  0.38907577  0.52728383    -0.13270
C291        C  0.71250886  0.42009728  0.52828151     0.00380
C292        C  0.73235257  0.43632088  0.54548064    -0.11790
C293        C  0.74359901  0.42341907  0.57069404     0.02870
C294        C  0.74643116  0.39223738  0.57070615    -0.11210
H295        H  0.70082082  0.37607736  0.51273906     0.08470
H296        H  0.73067892  0.46010752  0.54536038     0.06000
H297        H  0.75668451  0.38163889  0.58932731     0.05840
C298        C  0.53007980  0.34922447  0.72645127     0.02880
C299        C  0.52098309  0.35968319  0.69895835    -0.13270
C300        C  0.53054241  0.38726911  0.68988729     0.00380
C301        C  0.54832278  0.40463378  0.70819272    -0.11790
C302        C  0.56081196  0.39308578  0.73339080     0.02870
C303        C  0.55066999  0.36575122  0.74364755    -0.11210
H304        H  0.50734617  0.34619968  0.68436031     0.08470
H305        H  0.55686404  0.42532507  0.69990702     0.06000
H306        H  0.55920334  0.35734666  0.76414637     0.05840
C307        C  0.34550025  0.59726986  0.41614332     0.02880
C308        C  0.32945927  0.62031922  0.42782043    -0.13270
C309        C  0.29930050  0.62067209  0.42372195     0.00380
C310        C  0.28474878  0.59702324  0.40911053    -0.11790
C311        C  0.30126602  0.57339820  0.39718558     0.02870
C312        C  0.33177054  0.57503818  0.39960573    -0.11210
H313        H  0.34042014  0.63741168  0.44097715     0.08470
H314        H  0.26109883  0.59725171  0.40723658     0.06000
H315        H  0.34534471  0.55806893  0.39000170     0.05840
C316        C  0.50500410  0.56160734  0.29891974     0.02880
C317        C  0.47605638  0.55404433  0.29157689    -0.13270
C318        C  0.45835782  0.57388218  0.27711218     0.00380
C319        C  0.46992705  0.60038619  0.26743856    -0.11790
C320        C  0.49889592  0.60776455  0.27324529     0.02870
C321        C  0.51680379  0.58858861  0.28907167    -0.11210
H322        H  0.46619257  0.53400912  0.29974928     0.08470
H323        H  0.45575741  0.61628504  0.25700571     0.06000
H324        H  0.53866658  0.59560240  0.29578545     0.05840
C325        C  0.57427901  0.65410661  0.39953213     0.02880
C326        C  0.55109697  0.65926711  0.37876214    -0.13270
C327        C  0.55669622  0.67637401  0.35320164     0.00380
C328        C  0.58451430  0.68755220  0.34814871    -0.11790
C329        C  0.60637196  0.68393181  0.36870416     0.02870
C330        C  0.60157752  0.66706307  0.39384152    -0.11210
H331        H  0.52925019  0.65064052  0.38243868     0.08470
H332        H  0.58858173  0.70189793  0.32956574     0.06000
H333        H  0.61863494  0.66689315  0.41058688     0.05840
C334        C  0.67792655  0.57008370  0.35531684     0.02880
C335        C  0.69483435  0.55732706  0.33328517    -0.13270
C336        C  0.72511173  0.56118357  0.33334568     0.00380
C337        C  0.73850417  0.57910619  0.35668846    -0.11790
C338        C  0.72039070  0.59423127  0.37819987     0.02870
C339        C  0.69010038  0.59174304  0.37406906    -0.11210
H340        H  0.68468864  0.54099471  0.31855397     0.08470
H341        H  0.76212751  0.58050470  0.35852617     0.06000
H342        H  0.67568991  0.60320878  0.38920964     0.05840
C343        C  0.46938465  0.31837466  0.61195090     0.02880
C344        C  0.47647321  0.30418482  0.63839471    -0.13270
C345        C  0.45648766  0.28403286  0.65075884     0.00380
C346        C  0.42953177  0.27819032  0.63532955    -0.11790
C347        C  0.42332637  0.29172692  0.60793003     0.02870
C348        C  0.44331642  0.31175760  0.59708893    -0.11210
H349        H  0.49723776  0.30892191  0.64926814     0.08470
H350        H  0.41375632  0.26381944  0.64422235     0.06000
H351        H  0.43869674  0.32223368  0.57613573     0.05840
C352        C  0.34869328  0.47140930  0.53170991     0.02880
C353        C  0.34564009  0.47766367  0.56213059    -0.13270
C354        C  0.32674079  0.46060642  0.57953594     0.00380
C355        C  0.31471887  0.43407630  0.56610809    -0.11790
C356        C  0.31741359  0.42905555  0.53468082     0.02870
C357        C  0.32972101  0.45143442  0.51803117    -0.11210
H358        H  0.35966253  0.49425487  0.57257415     0.08470
H359        H  0.30390240  0.41786443  0.57961629     0.06000
H360        H  0.33219511  0.44782102  0.49433305     0.05840
C361        C  0.17878951  0.43172814  0.47089085     0.02880
C362        C  0.14899553  0.43888957  0.47596876    -0.13270
C363        C  0.13591111  0.46166780  0.45945315     0.00380
C364        C  0.15142947  0.47415960  0.43632636    -0.11790
C365        C  0.17964093  0.46462276  0.42989511     0.02870
C366        C  0.19469212  0.44796126  0.45037404    -0.11210
H367        H  0.13606649  0.42612992  0.49120071     0.08470
H368        H  0.14025294  0.48833120  0.42089819     0.06000
H369        H  0.21676047  0.44094331  0.44504006     0.05840
C370        C  0.16335925  0.26845373  0.29341312     0.02880
C371        C  0.13384009  0.26365927  0.28442495    -0.13270
C372        C  0.12089399  0.28116203  0.26207471     0.00380
C373        C  0.13778773  0.30562812  0.25141288    -0.11790
C374        C  0.16742876  0.31042037  0.26117206     0.02870
C375        C  0.18006583  0.28979653  0.27939516    -0.11210
H376        H  0.12091590  0.24695375  0.29519836     0.08470
H377        H  0.12786682  0.32093767  0.23633825     0.06000
H378        H  0.20273291  0.29313051  0.28637542     0.05840
C379        C  0.43796304  0.48368254  0.14325992     0.02880
C380        C  0.44054438  0.49024228  0.11232355    -0.13270
C381        C  0.46593642  0.48097335  0.09611271     0.00380
C382        C  0.48623367  0.46322575  0.11010327    -0.11790
C383        C  0.48259987  0.45580639  0.13952423     0.02870
C384        C  0.46080250  0.46860113  0.15657824    -0.11210
H385        H  0.42304161  0.50156209  0.10110488     0.08470
H386        H  0.50345106  0.45274202  0.09734694     0.06000
H387        H  0.45834358  0.46126432  0.17918566     0.05840
C388        C  0.33558971  0.33340539  0.09026802     0.02880
C389        C  0.32187873  0.31661790  0.06824478    -0.13270
C390        C  0.31827928  0.28645109  0.07102995     0.00380
C391        C  0.33394161  0.27204697  0.09508527    -0.11790
C392        C  0.35139739  0.28951540  0.11628045     0.02870
C393        C  0.35108713  0.31981472  0.11292723    -0.11210
H394        H  0.31014546  0.32797466  0.05090175     0.08470
H395        H  0.33270417  0.24838530  0.09708623     0.06000
H396        H  0.36179325  0.33326581  0.12994156     0.05840
C397        C  0.29235162  0.15361319  0.30534816     0.02880
C398        C  0.30372891  0.16321199  0.27880999    -0.13270
C399        C  0.31359601  0.14323515  0.25771140     0.00380
C400        C  0.30411602  0.11398265  0.25783666    -0.11790
C401        C  0.28686203  0.10342705  0.28096460     0.02870
C402        C  0.28272988  0.12304954  0.30646198    -0.11210
H403        H  0.31151553  0.18585173  0.27759951     0.08470
H404        H  0.31163606  0.09906380  0.24058707     0.06000
H405        H  0.27259768  0.11488636  0.32632078     0.05840
C406        C  0.46460093  0.14027687  0.39510199     0.02880
C407        C  0.48124093  0.11682683  0.40782019    -0.13270
C408        C  0.46751138  0.09626656  0.42759603     0.00380
C409        C  0.43789495  0.10065446  0.43483638    -0.11790
C410        C  0.42178811  0.12289010  0.42141287     0.02870
C411        C  0.43491827  0.14138348  0.40110472    -0.11210
H412        H  0.50430108  0.11499802  0.40295111     0.08470
H413        H  0.42752239  0.08730528  0.45145269     0.06000
H414        H  0.42194318  0.15875758  0.39145269     0.05840
C415        C  0.22551994  0.36020890  0.67953379     0.02880
C416        C  0.23693022  0.38866802  0.67862474    -0.13270
C417        C  0.25465352  0.39732603  0.65521872     0.00380
C418        C  0.25978266  0.37669559  0.63144479    -0.11790
C419        C  0.24872669  0.34709982  0.63320232     0.02870
C420        C  0.23315226  0.33924655  0.65828854    -0.11210
H421        H  0.23020552  0.40470881  0.69526023     0.08470
H422        H  0.27165167  0.38351979  0.61202200     0.06000
H423        H  0.22287666  0.31761231  0.65901594     0.05840
C424        C  0.05695104  0.40451981  0.53020779     0.02880
C425        C  0.07689188  0.38980758  0.51217865    -0.13270
C426        C  0.08150311  0.36000302  0.51609868     0.00380
C427        C  0.06299082  0.34394479  0.53388910    -0.11790
C428        C  0.04830836  0.35838243  0.55660774     0.02870
C429        C  0.04422701  0.38934507  0.55440722    -0.11210
H430        H  0.09019835  0.40187708  0.49664620     0.08470
H431        H  0.06678032  0.32046460  0.53511591     0.06000
H432        H  0.03241216  0.40129859  0.57141298     0.05840
C433        C  0.40540328  0.02546355  0.51754124     0.02880
C434        C  0.39207219  0.04036066  0.49427265    -0.13270
C435        C  0.36261234  0.04851695  0.49571785     0.00380
C436        C  0.34491000  0.03776792  0.51813516    -0.11790
C437        C  0.35704788  0.02579677  0.54355059     0.02870
C438        C  0.38798907  0.01943960  0.54335427    -0.11210
H439        H  0.40539664  0.04848190  0.47636352     0.08470
H440        H  0.32223888  0.04473710  0.51874241     0.06000
H441        H  0.39820594  0.01041449  0.56281011     0.05840
C442        C  0.40935031  0.20374004  0.70065817     0.02880
C443        C  0.40392225  0.21659337  0.67336833    -0.13270
C444        C  0.37605857  0.22844504  0.66764540     0.00380
C445        C  0.35509154  0.22836346  0.69008735    -0.11790
C446        C  0.35824558  0.20732559  0.71172204     0.02870
C447        C  0.38650458  0.19983418  0.72056516    -0.11210
H448        H  0.42061577  0.21599799  0.65638779     0.08470
H449        H  0.33289107  0.23495269  0.68478905     0.06000
H450        H  0.38968098  0.18615885  0.73973637     0.05840
C451        C  0.23699795  0.69376392  0.34895338     0.02880
C452        C  0.23979570  0.66767327  0.33162546    -0.13270
C453        C  0.23572547  0.66855398  0.30034838     0.00380
C454        C  0.23065457  0.69584563  0.28749223    -0.11790
C455        C  0.22097061  0.71893262  0.30542079     0.02870
C456        C  0.22834034  0.71957198  0.33534489    -0.11210
H457        H  0.24350251  0.64692920  0.34239249     0.08470
H458        H  0.22471240  0.69656260  0.26424267     0.06000
H459        H  0.22161655  0.73820887  0.34895424     0.05840
C460        C  0.04626578  0.54630666  0.37101636     0.02880
C461        C  0.04947525  0.52130790  0.35302717    -0.13270
C462        C  0.04936914  0.52365171  0.32233823     0.00380
C463        C  0.03747392  0.54841968  0.30946554    -0.11790
C464        C  0.03749365  0.57527281  0.32521289     0.02870
C465        C  0.04171279  0.57413795  0.35689872    -0.11210
H466        H  0.05742893  0.50117655  0.36267989     0.08470
H467        H  0.03711507  0.54856260  0.28546396     0.06000
H468        H  0.04195169  0.59425509  0.37004804     0.05840
C469        C  0.55576532  0.04680386  0.37116719     0.02880
C470        C  0.54298207  0.07206732  0.35689703    -0.13270
C471        C  0.54824568  0.07742381  0.32588156     0.00380
C472        C  0.56376459  0.05659613  0.31012053    -0.11790
C473        C  0.58227642  0.03761895  0.32458429     0.02870
C474        C  0.57774697  0.03177562  0.35494773    -0.11210
H475        H  0.52946448  0.08701818  0.36942885     0.08470
H476        H  0.56718708  0.06026944  0.28667557     0.06000
H477        H  0.59164098  0.01609704  0.36593752     0.05840
C478        C  0.70823154  0.24279978  0.36031955     0.02880
C479        C  0.72908712  0.22787476  0.34364619    -0.13270
C480        C  0.74901013  0.20972763  0.35763307     0.00380
C481        C  0.75355257  0.21247873  0.38819430    -0.11790
C482        C  0.73595283  0.23132875  0.40500777     0.02870
C483        C  0.71223060  0.24559087  0.39124207    -0.11210
H484        H  0.72501782  0.22436368  0.32011642     0.08470
H485        H  0.76902206  0.19820752  0.39905353     0.06000
H486        H  0.69656053  0.25772397  0.40429568     0.05840
C487        C  0.34790558  0.53615623  0.04917348     0.02880
C488        C  0.37817359  0.52989934  0.04424595    -0.13270
C489        C  0.39499239  0.54682228  0.02377421     0.00380
C490        C  0.38155589  0.57236723  0.01196427    -0.11790
C491        C  0.35147021  0.57816972  0.01748221     0.02870
C492        C  0.33502651  0.55843619  0.03349367    -0.11210
H493        H  0.38846006  0.51232355  0.05624059     0.08470
H494        H  0.39428454  0.58749191  0.99884470     0.06000
H495        H  0.31218402  0.56360919  0.03774452     0.05840
C496        C  0.41742717  0.69949178  0.20274227     0.02880
C497        C  0.39501944  0.68222186  0.21440131    -0.13270
C498        C  0.36587744  0.68940390  0.20860581     0.00380
C499        C  0.35919534  0.71453546  0.19314319    -0.11790
C500        C  0.38127774  0.72907479  0.17776744     0.02870
C501        C  0.41065697  0.72294451  0.18423926    -0.11210
H502        H  0.40015183  0.66231291  0.22616924     0.08470
H503        H  0.33639704  0.71803810  0.18719650     0.06000
H504        H  0.42790703  0.73480092  0.17317836     0.05840
C505        C  0.55006523  0.40268896  0.01532200     0.02880
C506        C  0.52755366  0.38687021  0.02872952    -0.13270
C507        C  0.53070624  0.35695038  0.03393461     0.00380
C508        C  0.55342067  0.34156469  0.02041904    -0.11790
C509        C  0.57805073  0.35658754  0.01045397     0.02870
C510        C  0.57649233  0.38778641  0.00760793    -0.11210
H511        H  0.50932955  0.39848860  0.03870162     0.08470
H512        H  0.55540774  0.31818807  0.02441933     0.06000
H513        H  0.59540770  0.40007467  0.00019813     0.05840
C514        C  0.73832776  0.34963242  0.20214563     0.02880
C515        C  0.74282003  0.37939597  0.20912320    -0.13270
C516        C  0.71873679  0.39827091  0.20677432     0.00380
C517        C  0.68984826  0.38501277  0.20414558    -0.11790
C518        C  0.68664398  0.35358359  0.20714147     0.02870
C519        C  0.71217642  0.33761439  0.21229646    -0.11210
H520        H  0.76477941  0.38844467  0.20689547     0.08470
H521        H  0.67090955  0.39842329  0.19971643     0.06000
H522        H  0.71037188  0.31387149  0.21376068     0.05840
C523        C  0.20022268  0.22862662  0.80691134     0.02880
C524        C  0.20715374  0.23356012  0.83696133    -0.13270
C525        C  0.22429004  0.21342158  0.85263446     0.00380
C526        C  0.23248898  0.18653060  0.83749011    -0.11790
C527        C  0.22569131  0.18200988  0.80650779     0.02870
C528        C  0.21146672  0.20446580  0.79197676    -0.11210
H529        H  0.19785070  0.25234727  0.84849558     0.08470
H530        H  0.24361377  0.16953326  0.84951792     0.06000
H531        H  0.20424486  0.20066649  0.76933604     0.05840
C532        C  0.08366439  0.03355787  0.85010549     0.02880
C533        C  0.06271232  0.01809184  0.86591714    -0.13270
C534        C  0.03624919  0.03164548  0.87284504     0.00380
C535        C  0.03001342  0.05983923  0.86273276    -0.11790
C536        C  0.05139027  0.07524388  0.84708439     0.02870
C537        C  0.07822634  0.06222979  0.84143648    -0.11210
H538        H  0.06718675  0.99594815  0.87313632     0.08470
H539        H  0.00909460  0.06984444  0.86741608     0.06000
H540        H  0.09405899  0.07354682  0.82772944     0.05840
C541        C  0.28984443  0.92083357  0.08194346     0.02880
C542        C  0.30713969  0.94230477  0.06944907    -0.13270
C543        C  0.32523629  0.95991607  0.08694094     0.00380
C544        C  0.31811326  0.96404643  0.11746804    -0.11790
C545        C  0.29383461  0.94855896  0.13010379     0.02870
C546        C  0.28197329  0.92436552  0.11257608    -0.11210
H547        H  0.31229897  0.94007891  0.04608673     0.08470
H548        H  0.33119901  0.97895257  0.13108231     0.06000
H549        H  0.26702373  0.90878429  0.12243643     0.05840
C550        C  0.46584147  0.75426282  0.09406877     0.02880
C551        C  0.46950630  0.74596964  0.12362112    -0.13270
C552        C  0.49004419  0.76099329  0.14179967     0.00380
C553        C  0.50546172  0.78515848  0.13069195    -0.11790
C554        C  0.50188489  0.79269090  0.10098771     0.02870
C555        C  0.48477583  0.77498700  0.08215435    -0.11210
H556        H  0.45511501  0.72943327  0.13267137     0.08470
H557        H  0.51845421  0.79921099  0.14540339     0.06000
H558        H  0.48066325  0.78233403  0.05974665     0.05840
C559        C  0.84394596  0.22223766  0.16623758     0.02880
C560        C  0.87428180  0.22827613  0.16918233    -0.13270
C561        C  0.89152118  0.21168697  0.18899638     0.00380
C562        C  0.87807097  0.18663440  0.20235148    -0.11790
C563        C  0.84719499  0.18180936  0.19955304     0.02870
C564        C  0.83074018  0.20229018  0.18471940    -0.11210
H565        H  0.88442401  0.24500302  0.15573383     0.08470
H566        H  0.89127881  0.17128602  0.21454972     0.06000
H567        H  0.80717121  0.19901407  0.18266343     0.05840
C568        C  0.86169210  0.02193198  0.04041678     0.02880
C569        C  0.89133139  0.01838408  0.03394785    -0.13270
C570        C  0.90785511  0.04280606  0.02563035     0.00380
C571        C  0.89503477  0.07023874  0.02301979    -0.11790
C572        C  0.86500398  0.07277893  0.02741367     0.02870
C573        C  0.84790827  0.04813299  0.03309119    -0.11210
H574        H  0.90223767  0.99814805  0.03970815     0.08470
H575        H  0.90828669  0.08950814  0.01843414     0.06000
H576        H  0.82489054  0.05115983  0.03821290     0.05840
C577        C  0.09768239  0.28658319  0.91172560     0.02880
C578        C  0.12827973  0.28160426  0.91245760    -0.13270
C579        C  0.14669374  0.29928700  0.93101155     0.00380
C580        C  0.13399180  0.32650164  0.94170075    -0.11790
C581        C  0.10256851  0.33046578  0.94050186     0.02870
C582        C  0.08596127  0.30566328  0.93256653    -0.11210
H583        H  0.13765905  0.26498593  0.89800192     0.08470
H584        H  0.14803188  0.34404101  0.95009583     0.06000
H585        H  0.06228009  0.30686001  0.93283953     0.05840
C586        C  0.14195289  0.49155148  0.76362557     0.02880
C587        C  0.17146166  0.49785233  0.75561258    -0.13270
C588        C  0.18508652  0.48129530  0.73238854     0.00380
C589        C  0.16951325  0.45828844  0.71861379    -0.11790
C590        C  0.14044415  0.45301432  0.72609596     0.02870
C591        C  0.12627788  0.47114242  0.74655771    -0.11210
H592        H  0.18333341  0.51518875  0.76711302     0.08470
H593        H  0.18044091  0.44331995  0.70340535     0.06000
H594        H  0.10415692  0.46533800  0.75331809     0.05840
C595        C  0.93635412  0.09876745  0.27211653     0.02880
C596        C  0.93866393  0.12711378  0.25966240    -0.13270
C597        C  0.96494806  0.14370160  0.26366509     0.00380
C598        C  0.98755071  0.13256372  0.28112408    -0.11790
C599        C  0.98503693  0.10441720  0.29262578     0.02870
C600        C  0.96071546  0.08693680  0.28569118    -0.11210
H601        H  0.92020017  0.13638440  0.24803282     0.08470
H602        H  0.00624862  0.14634550  0.28726868     0.06000
H603        H  0.95892710  0.06514065  0.29499528     0.05840
C604        C  0.84569631  0.10887630  0.46833256     0.02880
C605        C  0.84152850  0.13630733  0.48438067    -0.13270
C606        C  0.81870247  0.15620044  0.47522243     0.00380
C607        C  0.80264622  0.14949708  0.44980233    -0.11790
C608        C  0.80752046  0.12363103  0.43457707     0.02870
C609        C  0.82756983  0.10313982  0.44423385    -0.11210
H610        H  0.85546185  0.14191636  0.50311765     0.08470
H611        H  0.78646895  0.16466572  0.44138998     0.06000
H612        H  0.83079629  0.08335339  0.43083892     0.05840
C613        C  0.85620674  0.47069407  0.08288144     0.02880
C614        C  0.83882614  0.48861257  0.10288681    -0.13270
C615        C  0.82601577  0.47544527  0.12898773     0.00380
C616        C  0.83229832  0.44633063  0.13491760    -0.11790
C617        C  0.84280349  0.42831425  0.11253841     0.02870
C618        C  0.85783987  0.44082523  0.08887574    -0.11210
H619        H  0.83552321  0.51166280  0.09846982     0.08470
H620        H  0.82217266  0.43587015  0.15380837     0.06000
H621        H  0.86831393  0.42667299  0.07261295     0.05840
C622        C  0.94089486  0.28679717  0.06819107     0.02880
C623        C  0.94252892  0.27953736  0.09863860    -0.13270
C624        C  0.96781807  0.28743917  0.11541488     0.00380
C625        C  0.98991327  0.30418665  0.10255906    -0.11790
C626        C  0.98784213  0.31144005  0.07287750     0.02870
C627        C  0.96529220  0.29985562  0.05524611    -0.11210
H628        H  0.92406164  0.26908275  0.10933835     0.08470
H629        H  0.00743665  0.31366288  0.11612417     0.06000
H630        H  0.96374739  0.30734948  0.03263298     0.05840
C631        C  0.49085941  0.07657828  0.82271322     0.02880
C632        C  0.49305794  0.10798989  0.82054577    -0.13270
C633        C  0.48801913  0.12151826  0.79262664     0.00380
C634        C  0.47788983  0.10411190  0.76905809    -0.11790
C635        C  0.47171699  0.07449214  0.77334707     0.02870
C636        C  0.48445715  0.06029187  0.79692853    -0.11210
H637        H  0.49734581  0.12147445  0.84012089     0.08470
H638        H  0.46947650  0.11470015  0.74943556     0.06000
H639        H  0.48004927  0.03687675  0.79828850     0.05840
C640        C  0.31176972  0.10452325  0.94540830     0.02880
C641        C  0.30702630  0.13468683  0.94696090    -0.13270
C642        C  0.29550338  0.14933541  0.92265214     0.00380
C643        C  0.29041344  0.13312945  0.89556106    -0.11790
C644        C  0.29608265  0.10222212  0.89424471     0.02870
C645        C  0.30445434  0.08838065  0.92002214    -0.11210
H646        H  0.31388134  0.14699063  0.96666294     0.08470
H647        H  0.28298852  0.14429872  0.87598666     0.06000
H648        H  0.30926092  0.06501749  0.91919468     0.05840
C649        C  0.10418286  0.77519909  0.43060969     0.02880
C650        C  0.13187723  0.76315423  0.42597072    -0.13270
C651        C  0.15517155  0.77191041  0.44425471     0.00380
C652        C  0.15088786  0.79374886  0.46623346    -0.11790
C653        C  0.12256646  0.80474760  0.47103410     0.02870
C654        C  0.09884830  0.79172817  0.45601655    -0.11210
H655        H  0.13594847  0.74997255  0.40619781     0.08470
H656        H  0.16942224  0.80322300  0.47812018     0.06000
H657        H  0.07731547  0.80148069  0.45837948     0.05840
C658        C  0.14439136  0.94531727  0.28917518     0.02880
C659        C  0.12503378  0.92532247  0.27381152    -0.13270
C660        C  0.09580942  0.92169250  0.28395819     0.00380
C661        C  0.08604331  0.93969341  0.30657351    -0.11790
C662        C  0.10568325  0.95360829  0.32545142     0.02870
C663        C  0.13498137  0.95777784  0.31652136    -0.11210
H664        H  0.13261887  0.91272575  0.25483846     0.08470
H665        H  0.06305825  0.93861410  0.31286514     0.06000
H666        H  0.15003240  0.97048299  0.33038613     0.05840
C667        C  0.18675813  0.83133892  0.20268554     0.02880
C668        C  0.20597120  0.81693783  0.18386518    -0.13270
C669        C  0.22633516  0.83233665  0.16739316     0.00380
C670        C  0.23159329  0.86272716  0.17447438    -0.11790
C671        C  0.21549575  0.87712031  0.19754926     0.02870
C672        C  0.19181009  0.86137703  0.21018326    -0.11210
H673        H  0.20115550  0.79424023  0.17759817     0.08470
H674        H  0.24752114  0.87503503  0.16190389     0.06000
H675        H  0.17696882  0.87254860  0.22515347     0.05840
C676        C  0.03176943  0.86091471  0.03307903     0.02880
C677        C  0.03148737  0.89154873  0.03333957    -0.13270
C678        C  0.04856945  0.90663374  0.01304351     0.00380
C679        C  0.06662162  0.89144656  0.99337279    -0.11790
C680        C  0.06816472  0.86080304  0.99488932     0.02870
C681        C  0.04753908  0.84563530  0.01166319    -0.11210
H682        H  0.01986388  0.90346533  0.05058608     0.08470
H683        H  0.08212381  0.90340644  0.97990348     0.06000
H684        H  0.04939961  0.82199475  0.01391391     0.05840
C685        C  0.88788485  0.07831286  0.72260771     0.02880
C686        C  0.89751878  0.05107145  0.71235270    -0.13270
C687        C  0.92570135  0.04824152  0.70140616     0.00380
C688        C  0.94634131  0.07067441  0.70625995    -0.11790
C689        C  0.93717796  0.09885823  0.71430343     0.02870
C690        C  0.90740336  0.10285217  0.72269758    -0.11210
H691        H  0.88179291  0.03331747  0.70836057     0.08470
H692        H  0.96808016  0.06805000  0.69697158     0.06000
H693        H  0.89944600  0.12462135  0.72818705     0.05840
C694        C  0.91786531  0.18005717  0.53292701     0.02880
C695        C  0.88769091  0.18451363  0.54069783    -0.13270
C696        C  0.87449192  0.21262821  0.53553882     0.00380
C697        C  0.89201219  0.23514981  0.52402843    -0.11790
C698        C  0.92243567  0.23233600  0.52538972     0.02870
C699        C  0.93355577  0.20408004  0.52189202    -0.11210
H700        H  0.87496039  0.16681565  0.55009361     0.08470
H701        H  0.88312164  0.25716481  0.52295134     0.06000
H702        H  0.95684712  0.20158874  0.51794420     0.05840
C703        C  0.99051580  0.47215651  0.59383144     0.02880
C704        C  0.96141006  0.48012698  0.59831260    -0.13270
C705        C  0.94730783  0.47276110  0.62428404     0.00380
C706        C  0.96166429  0.45727950  0.64606045    -0.11790
C707        C  0.98955006  0.44639589  0.64162694     0.02870
C708        C  0.00452803  0.45382210  0.61499548    -0.11210
H709        H  0.94972819  0.49181765  0.58152224     0.08470
H710        H  0.94972325  0.45160360  0.66595112     0.06000
H711        H  0.02621231  0.44532256  0.61074249     0.05840
C712        C  0.78024078  0.32495668  0.67714640     0.02880
C713        C  0.77628789  0.32207344  0.64592772    -0.13270
C714        C  0.78446839  0.29551885  0.63144440     0.00380
C715        C  0.79828463  0.27380607  0.64780750    -0.11790
C716        C  0.80959979  0.28200050  0.67553881     0.02870
C717        C  0.79234041  0.30124765  0.69211772    -0.11210
H718        H  0.76852543  0.34041709  0.63315639     0.08470
H719        H  0.80760074  0.25503179  0.63621625     0.06000
H720        H  0.79655078  0.30357663  0.71559952     0.05840
C721        C  0.20905696  0.88713200  0.48792032     0.02880
C722        C  0.23238287  0.90087276  0.50271465    -0.13270
C723        C  0.25324735  0.88391028  0.51702129     0.00380
C724        C  0.25511184  0.85384500  0.51023956    -0.11790
C725        C  0.23433830  0.84058686  0.49119509     0.02870
C726        C  0.21053539  0.85701813  0.48090108    -0.11210
H727        H  0.23007874  0.92380178  0.50941283     0.08470
H728        H  0.27096393  0.84047944  0.52172425     0.06000
H729        H  0.19261987  0.84641021  0.46900495     0.05840
C730        C  0.08608899  0.91282083  0.69969448     0.02880
C731        C  0.08242722  0.88174646  0.70287391    -0.13270
C732        C  0.05658535  0.86726993  0.69146741     0.00380
C733        C  0.03970789  0.88354074  0.67068194    -0.11790
C734        C  0.04414530  0.91455467  0.66833839     0.02870
C735        C  0.06249980  0.92838547  0.68879837    -0.11210
H736        H  0.09933960  0.86919369  0.71361552     0.08470
H737        H  0.02375310  0.87240622  0.65654748     0.06000
H738        H  0.06427093  0.95212593  0.68797450     0.05840
C739        C  0.28838820  0.79951739  0.61283806     0.02880
C740        C  0.28233851  0.79242605  0.58312053    -0.13270
C741        C  0.29711715  0.76907582  0.56936735     0.00380
C742        C  0.31964692  0.75471970  0.58458915    -0.11790
C743        C  0.32557978  0.76242214  0.61419378     0.02870
C744        C  0.30765268  0.78229941  0.62885441    -0.11210
H745        H  0.26748388  0.80590278  0.57049091     0.08470
H746        H  0.33326808  0.73880530  0.57333430     0.06000
H747        H  0.31352995  0.78903009  0.65133906     0.05840
C748        C  0.48242357  0.93525999  0.64100718     0.02880
C749        C  0.49020489  0.93864704  0.61072395    -0.13270
C750        C  0.47609017  0.96014767  0.59302428     0.00380
C751        C  0.45089631  0.97422082  0.60552310    -0.11790
C752        C  0.44354510  0.97019978  0.63592851     0.02870
C753        C  0.46188925  0.95379549  0.65346946    -0.11210
H754        H  0.50670891  0.92455815  0.60103933     0.08470
H755        H  0.43719638  0.98779050  0.59184070     0.06000
H756        H  0.45600470  0.95079898  0.67654770     0.05840
C757        C  0.54313995  0.16639967  0.90851642     0.02880
C758        C  0.52252532  0.17580326  0.88665090    -0.13270
C759        C  0.53257195  0.19208743  0.86187528     0.00380
C760        C  0.56223086  0.19746037  0.85812870    -0.11790
C761        C  0.58182772  0.18982977  0.87979944     0.02870
C762        C  0.57242245  0.17500769  0.90475527    -0.11210
H763        H  0.49936837  0.17108002  0.88884910     0.08470
H764        H  0.56995939  0.21050825  0.83973730     0.06000
H765        H  0.58808805  0.17291747  0.92260047     0.05840
C766        C  0.71485217  0.10450201  0.90525246     0.02880
C767        C  0.73232659  0.10245879  0.87951247    -0.13270
C768        C  0.72264992  0.08457002  0.85529737     0.00380
C769        C  0.69552332  0.06992133  0.85661271    -0.11790
C770        C  0.67926319  0.07138409  0.88255349     0.02870
C771        C  0.68959834  0.08749295  0.90680267    -0.11210
H772        H  0.75266430  0.11485409  0.87812117     0.08470
H773        H  0.68743148  0.05739870  0.83770803     0.06000
H774        H  0.67697287  0.08742297  0.92711694     0.05840
C775        C  0.63596448  0.31271873  0.76229889     0.02880
C776        C  0.60565178  0.30789327  0.76606359    -0.13270
C777        C  0.59577034  0.28479684  0.78404068     0.00380
C778        C  0.61616374  0.26833079  0.79953373    -0.11790
C779        C  0.64602538  0.27385479  0.79565939     0.02870
C780        C  0.65542228  0.29209622  0.77320540    -0.11210
H781        H  0.59030499  0.32258001  0.75616584     0.08470
H782        H  0.60895622  0.25380010  0.81690978     0.06000
H783        H  0.67881360  0.29652595  0.77159125     0.05840
C784        C  0.62295700  0.47444552  0.95024867     0.02880
C785        C  0.63828514  0.45230273  0.96605447    -0.13270
C786        C  0.66900458  0.44844626  0.96193455     0.00380
C787        C  0.68400563  0.46764215  0.94395035    -0.11790
C788        C  0.66910059  0.48340593  0.92281552     0.02870
C789        C  0.63833612  0.48782305  0.92634814    -0.11210
H790        H  0.62654339  0.43817119  0.98101172     0.08470
H791        H  0.70744277  0.46449246  0.94119214     0.06000
H792        H  0.62662157  0.50115238  0.91069973     0.05840
C793        C  0.58111165  0.54097638  0.83123812     0.02880
C794        C  0.57817115  0.53534093  0.86219286    -0.13270
C795        C  0.55183998  0.54346621  0.87730670     0.00380
C796        C  0.53117257  0.56022037  0.86234491    -0.11790
C797        C  0.53532764  0.56710511  0.83269879     0.02870
C798        C  0.55748856  0.55347313  0.81665435    -0.11210
H799        H  0.59599863  0.52542476  0.87420420     0.08470
H800        H  0.51347886  0.57055676  0.87450139     0.06000
H801        H  0.56013719  0.55926815  0.79362501     0.05840
C802        C  0.71945493  0.75176667  0.88288511     0.02880
C803        C  0.69631959  0.76052342  0.86320923    -0.13270
C804        C  0.69593925  0.75015637  0.83294736     0.00380
C805        C  0.71866709  0.73229883  0.82354109    -0.11790
C806        C  0.73761278  0.71991463  0.84392910     0.02870
C807        C  0.73900047  0.73042174  0.87298802    -0.11210
H808        H  0.67892597  0.77445942  0.87124460     0.08470
H809        H  0.71771461  0.72291012  0.80125829     0.06000
H810        H  0.75407327  0.72038453  0.88842115     0.05840
C811        C  0.88641968  0.53461474  0.55290951     0.02880
C812        C  0.91700935  0.53780521  0.55106412    -0.13270
C813        C  0.92944660  0.54940422  0.52536557     0.00380
C814        C  0.91127360  0.56217757  0.50426919    -0.11790
C815        C  0.88095428  0.56230581  0.50865825     0.02870
C816        C  0.86878306  0.54412508  0.52979004    -0.11210
H817        H  0.93071648  0.53268942  0.56973592     0.08470
H818        H  0.92062718  0.57499587  0.48666092     0.06000
H819        H  0.84517160  0.54431936  0.53285522     0.05840
C820        C  0.90205084  0.71384959  0.69486290     0.02880
C821        C  0.88570646  0.69245680  0.71143320    -0.13270
C822        C  0.85566062  0.68557296  0.70412930     0.00380
C823        C  0.84276221  0.70010299  0.68092551    -0.11790
C824        C  0.85850094  0.71815344  0.66243932     0.02870
C825        C  0.88815580  0.72546280  0.66926773    -0.11210
H826        H  0.89613253  0.68140441  0.72961811     0.08470
H827        H  0.82036369  0.69437351  0.67456710     0.06000
H828        H  0.90025340  0.73989219  0.65482028     0.05840
C829        C  0.04605392  0.69062601  0.88908919     0.02880
C830        C  0.04016679  0.69522155  0.85853096    -0.13270
C831        C  0.05804700  0.71486479  0.84206848     0.00380
C832        C  0.08505038  0.72439919  0.85563180    -0.11790
C833        C  0.09047205  0.71850131  0.88609101     0.02870
C834        C  0.06801040  0.70706289  0.90286196    -0.11210
H835        H  0.02249094  0.68311157  0.84761797     0.08470
H836        H  0.10155058  0.73552817  0.84274702     0.06000
H837        H  0.07209678  0.70407958  0.92636446     0.05840
C838        C  0.25437411  0.56813006  0.84622782     0.02880
C839        C  0.26336421  0.56201793  0.81725504    -0.13270
C840        C  0.24988138  0.53907180  0.80084486     0.00380
C841        C  0.22558359  0.52379836  0.81346708    -0.11790
C842        C  0.21586540  0.53136667  0.84242537     0.02870
C843        C  0.23206693  0.55172341  0.85896009    -0.11210
H844        H  0.28019526  0.57558149  0.80735560     0.08470
H845        H  0.21460616  0.50632784  0.80127103     0.06000
H846        H  0.22431880  0.55812708  0.88084303     0.05840
C847        C  0.46675977  0.61716556  0.95151860     0.02880
C848        C  0.49065153  0.63150765  0.93898515    -0.13270
C849        C  0.48885370  0.66096986  0.93166228     0.00380
C850        C  0.46474814  0.67745817  0.94022789    -0.11790
C851        C  0.43920107  0.66385248  0.95014216     0.02870
C852        C  0.44016990  0.63302870  0.95611407    -0.11210
H853        H  0.50957746  0.61900265  0.93185052     0.08470
H854        H  0.46381730  0.70010438  0.93313429     0.06000
H855        H  0.42069943  0.62165555  0.96360244     0.05840
C856        C  0.33028625  0.61555376  0.74125620     0.02880
C857        C  0.35472223  0.63515520  0.73706213    -0.13270
C858        C  0.35464548  0.66415277  0.75009758     0.00380
C859        C  0.33033764  0.67266231  0.76637232    -0.11790
C860        C  0.30837025  0.65267061  0.77343861     0.02870
C861        C  0.30793564  0.62444217  0.76059521    -0.11210
H862        H  0.37338673  0.62797975  0.72423443     0.08470
H863        H  0.33068459  0.69395407  0.77767555     0.06000
H864        H  0.29070253  0.60908800  0.76651065     0.05840
C865        C  0.59196436  0.84391981  0.51452850     0.02880
C866        C  0.58827202  0.87457593  0.50912232    -0.13270
C867        C  0.56445956  0.89017270  0.52249367     0.00380
C868        C  0.54923779  0.87574275  0.54557204    -0.11790
C869        C  0.55365149  0.84533997  0.55051269     0.02870
C870        C  0.57102471  0.82948982  0.53104222    -0.11210
H871        H  0.60367381  0.88600583  0.49515362     0.08470
H872        H  0.53465733  0.88806187  0.55987020     0.06000
H873        H  0.57401348  0.80616972  0.53481749     0.05840
C874        C  0.75759763  0.88569585  0.68991132     0.02880
C875        C  0.76645073  0.91470917  0.69760113    -0.13270
C876        C  0.75108606  0.93061806  0.71982135     0.00380
C877        C  0.72617090  0.91776668  0.73261898    -0.11790
C878        C  0.71832096  0.88873207  0.72521623     0.02870
C879        C  0.73549802  0.87233632  0.70593816    -0.11210
H880        H  0.78456367  0.92470410  0.68610231     0.08470
H881        H  0.71246198  0.93046486  0.74745631     0.06000
H882        H  0.72805910  0.85039130  0.69926049     0.05840
C883        C  0.56106298  0.88603798  0.22899446     0.02880
C884        C  0.55588803  0.85786046  0.24000033    -0.13270
C885        C  0.53584423  0.83882308  0.22530758     0.00380
C886        C  0.52172903  0.84781199  0.19936448    -0.11790
C887        C  0.52653493  0.87628714  0.18932884     0.02870
C888        C  0.54478633  0.89566574  0.20513056    -0.11210
H889        H  0.56824939  0.85063926  0.25894408     0.08470
H890        H  0.50795415  0.83261804  0.18666970     0.06000
H891        H  0.54982517  0.91706992  0.19595174     0.05840
C892        C  0.68251181  0.93889484  0.02414390     0.02880
C893        C  0.68586492  0.90800969  0.02052211    -0.13270
C894        C  0.71080363  0.89423983  0.03292299     0.00380
C895        C  0.72852479  0.91065443  0.05279181    -0.11790
C896        C  0.72333267  0.94082843  0.05740378     0.02870
C897        C  0.70472490  0.95510228  0.03807484    -0.11210
H898        H  0.66908550  0.89498509  0.00920953     0.08470
H899        H  0.74434091  0.89956925  0.06659424     0.06000
H900        H  0.70139620  0.97853393  0.04123242     0.05840
C901        C  0.63331019  0.96335693  0.44871155     0.02880
C902        C  0.64946300  0.94236572  0.46536810    -0.13270
C903        C  0.68032393  0.93899905  0.46096470     0.00380
C904        C  0.69426276  0.95757864  0.44140718    -0.11790
C905        C  0.67835349  0.97367700  0.42128011     0.02870
C906        C  0.64787982  0.97724029  0.42506177    -0.11210
H907        H  0.63818768  0.92854963  0.48100881     0.08470
H908        H  0.71750868  0.95480643  0.43726820     0.06000
H909        H  0.63561434  0.99022748  0.40947048     0.05840
C910        C  0.60856549  0.77525552  0.28331474     0.02880
C911        C  0.63139434  0.76099290  0.29751619    -0.13270
C912        C  0.66002450  0.77168777  0.29454392     0.00380
C913        C  0.66639839  0.79134639  0.27222979    -0.11790
C914        C  0.64390101  0.80855691  0.26104562     0.02870
C915        C  0.61463167  0.79977940  0.26567477    -0.11210
H916        H  0.62651736  0.74495693  0.31433855     0.08470
H917        H  0.68879782  0.79940139  0.27047257     0.06000
H918        H  0.59697225  0.81250477  0.25681155     0.05840
C919        C  0.91076482  0.54604176  0.13794032     0.02880
C920        C  0.88918152  0.52791991  0.15285969    -0.13270
C921        C  0.86651474  0.54176413  0.17072392     0.00380
C922        C  0.86511493  0.57214365  0.17157109    -0.11790
C923        C  0.88763387  0.58899867  0.16033990     0.02870
C924        C  0.90917091  0.57622629  0.14257762    -0.11210
H925        H  0.89002522  0.50419838  0.15076121     0.08470
H926        H  0.84877540  0.58300516  0.18523689     0.06000
H927        H  0.92652914  0.58989881  0.13368048     0.05840
C928        C  0.90339340  0.71072971  0.01306723     0.02880
C929        C  0.87582560  0.72413958  0.01016097    -0.13270
C930        C  0.86553393  0.74407142  0.03203755     0.00380
C931        C  0.88382507  0.74944308  0.05770591    -0.11790
C932        C  0.91243315  0.73655723  0.05974143     0.02870
C933        C  0.92157106  0.71839544  0.03668494    -0.11210
H934        H  0.86232960  0.71902646  0.99106190     0.08470
H935        H  0.87601918  0.76329690  0.07565500     0.06000
H936        H  0.94227332  0.70697914  0.03877465     0.05840
C937        C  0.79330932  0.61375555  0.28220141     0.02880
C938        C  0.79227051  0.62778360  0.31142095    -0.13270
C939        C  0.79102603  0.65964904  0.31404895     0.00380
C940        C  0.79042196  0.67514603  0.28764158    -0.11790
C941        C  0.80208717  0.66197422  0.26248268     0.02870
C942        C  0.79682418  0.63200300  0.25782916    -0.11210
H943        H  0.79248781  0.61459598  0.33109521     0.08470
H944        H  0.79055884  0.69901068  0.28891735     0.06000
H945        H  0.80252247  0.62232000  0.23652775     0.05840
C946        C  0.94411782  0.64065731  0.45100401     0.02880
C947        C  0.96371847  0.61877369  0.45702662    -0.13270
C948        C  0.98791870  0.61465194  0.43898192     0.00380
C949        C  0.99285373  0.63393917  0.41461884    -0.11790
C950        C  0.97238813  0.65692822  0.40872090     0.02870
C951        C  0.94847326  0.65962687  0.42750229    -0.11210
H952        H  0.96005379  0.60486982  0.47592898     0.08470
H953        H  0.01180246  0.63100417  0.40061615     0.06000
H954        H  0.93307123  0.67737355  0.42449776     0.05840
O955        O  0.05336271  0.80396139  0.30335953    -0.88430
C956        C  0.01933269  0.79865949  0.13952175     1.11610
O957        O  0.03025602  0.75638404  0.25959578    -1.36230
O958        O  0.00077794  0.83966037  0.19188845    -0.89910
O959        O  0.04596770  0.76017625  0.32342722    -0.90580
O960        O  0.97117704  0.76396904  0.30268682    -0.79400
O961        O  0.02862671  0.81619341  0.24490794    -1.01490
C962        C  0.92619732  0.77500195  0.22456991     1.21660
O963        O  0.98265785  0.72811447  0.23893055    -1.36380
Mn964      Mn  0.02435964  0.73402246  0.21628056     1.82050
O965        O  0.93920003  0.78451095  0.24791021    -0.78470
O966        O  0.95542899  0.82204410  0.18432189    -0.87870
C967        C  0.99099995  0.72569590  0.16079214     1.12740
C968        C  0.97395564  0.84308683  0.18599412     1.07470
O969        O  0.04258581  0.68984901  0.22631146    -0.79410
O970        O  0.00179165  0.77700167  0.21062080    -1.33110
O971        O  0.02456700  0.69406947  0.26861533    -0.98620
C972        C  0.91785003  0.70277236  0.26149326     1.06180
Mn973      Mn  0.96769064  0.77815252  0.17963349     1.48570
O974        O  0.93819953  0.70272839  0.28077667    -0.87820
Mn975      Mn  0.03771697  0.72699220  0.29320880     1.49560
O976        O  0.09539636  0.76865693  0.27111107    -0.91700
C977        C  0.01283819  0.83130952  0.25952202     1.19370
C978        C  0.10147264  0.74318345  0.27976974     1.11430
Mn979      Mn  0.98508168  0.77237585  0.25614709     1.80970
O980        O  0.97899892  0.73890059  0.17967402    -0.96850
Mn981      Mn  0.05927534  0.79219251  0.25955126     1.49260
C982        C  0.05009857  0.78762583  0.32541460     1.07950
Mn983      Mn  0.95349107  0.72103842  0.20629822     1.49930
C984        C  0.96520638  0.66181475  0.21817763     1.10860
O985        O  0.99647691  0.72656092  0.29871038    -1.02650
O986        O  0.99329780  0.79096679  0.14487387    -0.92310
C987        C  0.98178936  0.74128910  0.31470012     1.22140
O988        O  0.94054147  0.76125267  0.20714990    -1.03040
O989        O  0.03904210  0.80027341  0.15930398    -0.90440
O990        O  0.97593412  0.68253681  0.20414081    -0.90050
O991        O  0.08225270  0.72353226  0.28501189    -0.90070
Mn992      Mn  0.03183265  0.80983321  0.20349494     1.47860
O993        O  0.01539754  0.71625723  0.16976233    -0.78540
C994        C  0.03826278  0.67906123  0.25183215     1.15190
O995        O  0.99110498  0.81821338  0.27069153    -0.77280
O996        O  0.06780581  0.74340444  0.19886918    -0.76890
Mn997      Mn  0.98243426  0.69630625  0.27248587     1.51060
O998        O  0.92185207  0.70583308  0.23407898    -0.89240
O999        O  0.06201294  0.78503502  0.21793284    -0.96770
O1000       O  0.96956535  0.66032427  0.24573865    -0.91780
C1001       C  0.07786901  0.76881715  0.20452586     1.12980
O1002       O  0.82829308  0.69134185  0.52249390    -0.88430
C1003       C  0.78601721  0.85455735  0.54762762     1.11610
O1004       O  0.79343419  0.73731533  0.48841179    -1.36230
O1005       O  0.76605915  0.78940045  0.58415580    -0.89910
O1006       O  0.80629645  0.67228460  0.48233785    -0.90580
O1007       O  0.73299008  0.69263654  0.49675311    -0.79400
O1008       O  0.79927531  0.74417200  0.54992047    -1.01490
C1009       C  0.69273023  0.77232704  0.52026295     1.21660
O1010       O  0.74393531  0.76131561  0.46579140    -1.36380
Mn1011     Mn  0.78751691  0.78113538  0.47053113     1.82050
O1012       O  0.70437851  0.74744883  0.52497403    -0.78470
O1013       O  0.73108942  0.81786784  0.56665222    -0.87870
C1014       C  0.75360688  0.83600981  0.46512984     1.12740
C1015       C  0.74857234  0.81068130  0.58735082     1.07470
O1016       O  0.80318526  0.77120871  0.42317444    -0.79410
O1017       O  0.76809531  0.78461311  0.51645906    -1.33110
O1018       O  0.78058481  0.73169210  0.42647095    -0.98620
C1019       C  0.67889838  0.74095446  0.44061031     1.06180
Mn1020     Mn  0.73714729  0.81784179  0.52049081     1.48570
O1021       O  0.69834912  0.72479366  0.45091162    -0.87820
Mn1022     Mn  0.79604396  0.70564050  0.45471756     1.49560
O1023       O  0.85848351  0.73472213  0.48625170    -0.91700
C1024       C  0.78406010  0.72711399  0.56305407     1.19370
C1025       C  0.85818076  0.71422521  0.46706182     1.11430
Mn1026     Mn  0.74927692  0.73967231  0.50830795     1.80970
O1027       O  0.74092990  0.81835501  0.47932402    -0.96850
Mn1028     Mn  0.82758270  0.73698545  0.51937772     1.49260
C1029       C  0.82014693  0.66965254  0.50629335     1.07950
Mn1030     Mn  0.71146225  0.79342729  0.46461497     1.49930
C1031       C  0.72104853  0.78508799  0.39934029     1.10860
O1032       O  0.75578397  0.70268114  0.46057300    -1.02650
O1033       O  0.76714336  0.85147259  0.52725781    -0.92310
C1034       C  0.74270287  0.68361539  0.47196130     1.22140
O1035       O  0.70723062  0.78980767  0.50712082    -1.03040
O1036       O  0.80130701  0.83311423  0.55642845    -0.90440
O1037       O  0.71994193  0.80304655  0.42082874    -0.90050
O1038       O  0.83960750  0.71385026  0.44622933    -0.90070
Mn1039     Mn  0.79789499  0.78672056  0.55179552     1.47860
O1040       O  0.77792424  0.82681642  0.45551408    -0.78540
C1041       C  0.79470581  0.74679173  0.41082249     1.15190
O1042       O  0.75940536  0.72071637  0.55139502    -0.77280
O1043       O  0.83168129  0.79906941  0.48059848    -0.76890
Mn1044     Mn  0.73947196  0.72948819  0.43424011     1.51060
O1045       O  0.67652737  0.76726640  0.44955429    -0.89240
O1046       O  0.82689715  0.77936095  0.52175944    -0.96770
O1047       O  0.72594798  0.75799002  0.40212230    -0.91780
C1048       C  0.84153705  0.79498350  0.50656833     1.12980
O1049       O  0.76012985  0.10127329  0.26776823    -0.88430
C1050       C  0.84791996  0.98334009  0.19300065     1.11610
O1051       O  0.76017076  0.03445619  0.26697488    -1.36230
O1052       O  0.81837273  0.03379783  0.16952736    -0.89910
O1053       O  0.72955276  0.08270717  0.30123674    -0.90580
O1054       O  0.69683029  0.04615860  0.23405129    -0.79400
O1055       O  0.79118048  0.06624934  0.22149393    -1.01490
C1056       C  0.72265097  0.99068784  0.17243169     1.21660
O1057       O  0.73408639  0.98392320  0.24552441    -1.36380
Mn1058     Mn  0.77878806  0.99054279  0.26335658     1.82050
O1059       O  0.71952330  0.01620042  0.18294118    -0.78470
O1060       O  0.78188428  0.00600758  0.15176726    -0.87870
C1061       C  0.79097654  0.93475085  0.23128806     1.12740
C1062       C  0.80459548  0.02149895  0.14814357     1.07470
O1063       O  0.77144260  0.97479226  0.30761225    -0.79410
O1064       O  0.78162003  0.00639975  0.21792052    -1.33110
O1065       O  0.73002505  0.99429614  0.30531425    -0.98620
C1066       C  0.66455493  0.95710065  0.22749553     1.06180
Mn1067     Mn  0.78073777  0.97480798  0.18383177     1.48570
O1068       O  0.66709080  0.97904389  0.24505118    -0.87820
Mn1069     Mn  0.73216882  0.03688652  0.30249878     1.49560
O1070       O  0.79649787  0.07179261  0.30874240    -0.91700
C1071       C  0.77519296  0.07938534  0.20557600     1.19370
C1072       C  0.78487357  0.06226795  0.33199956     1.11430
Mn1073     Mn  0.73935460  0.02700355  0.22440585     1.80970
O1074       O  0.77436316  0.94655320  0.21443669    -0.96850
Mn1075     Mn  0.79037980  0.06842362  0.26410362     1.49260
C1076       C  0.74273637  0.10424645  0.28932112     1.07950
Mn1077     Mn  0.73190033  0.94745230  0.21719226     1.49930
C1078       C  0.70676210  0.91658984  0.26748225     1.10860
O1079       O  0.70178208  0.02668295  0.27509860    -1.02650
O1080       O  0.82675288  0.97125037  0.17887140    -0.92310
C1081       C  0.68706612  0.04170458  0.25960897     1.22140
O1082       O  0.73846380  0.97417489  0.18562101    -1.03040
O1083       O  0.84342943  0.99765027  0.21644737    -0.90440
O1084       O  0.72953237  0.91889180  0.25187146    -0.90050
O1085       O  0.76561910  0.04215718  0.33229357    -0.90070
Mn1086     Mn  0.81675018  0.03370449  0.21532321     1.47860
O1087       O  0.79634927  0.94750381  0.25568909    -0.78540
C1088       C  0.74670953  0.97927607  0.31897179     1.15190
O1089       O  0.74919082  0.06943907  0.20349682    -0.77280
O1090       O  0.82367280  0.00077508  0.28082613    -0.76890
Mn1091     Mn  0.70017918  0.98437922  0.27632903     1.51060
O1092       O  0.68634936  0.94577470  0.21439952    -0.89240
O1093       O  0.81575362  0.03722705  0.25681809    -0.96770
O1094       O  0.69644536  0.93854908  0.28159796    -0.91780
C1095       C  0.83272010  0.02543537  0.27235814     1.12980
O1096       O  0.52130843  0.73955549  0.82238784    -0.88430
C1097       C  0.61442231  0.82110248  0.71327353     1.11610
O1098       O  0.52618229  0.74265858  0.75612184    -1.36230
O1099       O  0.58251848  0.84097761  0.76562875    -0.89910
O1100       O  0.49706189  0.70251066  0.80037168    -0.90580
O1101       O  0.46033985  0.77067470  0.76885340    -0.79400
O1102       O  0.55454017  0.78640598  0.79254466    -1.01490
C1103       C  0.48798230  0.83756788  0.71652371     1.21660
O1104       O  0.50047765  0.76468120  0.70638211    -1.36380
Mn1105     Mn  0.54585333  0.74831450  0.71233988     1.82060
O1106       O  0.48298312  0.82675151  0.74168493    -0.78470
O1107       O  0.54968753  0.85971401  0.73484990    -0.87870
C1108       C  0.55650430  0.78300281  0.65800039     1.12740
C1109       C  0.57117360  0.86263794  0.75261121     1.07470
O1110       O  0.53901490  0.70393553  0.69156978    -0.79410
O1111       O  0.54759395  0.79263979  0.73243906    -1.33110
O1112       O  0.49936403  0.70777350  0.71234352    -0.98620
C1113       C  0.43028786  0.77869343  0.68117068     1.06180
Mn1114     Mn  0.54700273  0.82709575  0.70241007     1.48570
O1115       O  0.43414622  0.76243471  0.70320636    -0.87820
Mn1116     Mn  0.50053840  0.70566578  0.75442382     1.49560
O1117       O  0.55925733  0.69787243  0.79450328    -0.91700
C1118       C  0.53804720  0.80136679  0.80654682     1.19370
C1119       C  0.54944375  0.67632844  0.77909359     1.11430
Mn1120     Mn  0.50386397  0.78442990  0.75114810     1.80970
O1121       O  0.53974740  0.79772940  0.67207193    -0.96850
Mn1122     Mn  0.55450693  0.74385988  0.79240426     1.49260
C1123       C  0.50602650  0.71628517  0.82346484     1.07950
Mn1124     Mn  0.49732529  0.79396243  0.67168831     1.49930
C1125       C  0.47395162  0.74305514  0.63682829     1.10860
O1126       O  0.46827308  0.73077938  0.74747236    -1.02650
O1127       O  0.59279209  0.83163337  0.69925702    -0.92310
C1128       C  0.45240272  0.74418728  0.76350902     1.22140
O1129       O  0.50463073  0.82414487  0.70115119    -1.03040
O1130       O  0.61199630  0.79829130  0.72861852    -0.90440
O1131       O  0.49454805  0.76192445  0.63868708    -0.90050
O1132       O  0.53726702  0.68025876  0.75456549    -0.90070
Mn1133     Mn  0.58216926  0.79529399  0.76231256     1.47860
O1134       O  0.56370892  0.75873857  0.66903185    -0.78540
C1135       C  0.51382594  0.69319408  0.69616471     1.15190
O1136       O  0.51239189  0.80369424  0.79571798    -0.77280
O1137       O  0.59110911  0.73276997  0.72382081    -0.76890
Mn1138     Mn  0.46768224  0.73286439  0.70509826     1.51060
O1139       O  0.45105639  0.79373595  0.67001413    -0.89240
O1140       O  0.58352940  0.75325010  0.76416928    -0.96770
O1141       O  0.46517472  0.72881414  0.65907202    -0.91780
C1142       C  0.59982421  0.73832708  0.75019488     1.12980
O1143       O  0.29387286  0.74361622  0.07096544    -0.88430
C1144       C  0.21554485  0.84491869  0.96710754     1.11610
O1145       O  0.28875404  0.74949220  0.00546720    -1.36230
O1146       O  0.19648462  0.81378973  0.01946113    -0.89910
O1147       O  0.32705702  0.71517399  0.04959993    -0.90580
O1148       O  0.25263344  0.68747312  0.01807733    -0.79400
O1149       O  0.24991022  0.78080983  0.04294116    -1.01490
C1150       C  0.18933584  0.72079063  0.96595412     1.21660
O1151       O  0.26177237  0.72717187  0.95565844    -1.36380
Mn1152     Mn  0.28300383  0.77060739  0.96235125     1.82060
O1153       O  0.19826094  0.71368502  0.99142040    -0.78470
O1154       O  0.17829858  0.77682707  0.99325437    -0.87870
C1155       C  0.24563379  0.78608798  0.90908948     1.12740
C1156       C  0.17484008  0.79982757  0.00845663     1.07470
O1157       O  0.32573742  0.75973406  0.94214339    -0.79410
O1158       O  0.24055372  0.77615753  0.98357077    -1.33110
O1159       O  0.32039160  0.71849109  0.96107527    -0.98620
C1160       C  0.23922650  0.66122001  0.92667749     1.06180
Mn1161     Mn  0.20484156  0.77731404  0.95642398     1.48570
O1162       O  0.25409009  0.66293306  0.95023354    -0.87820
Mn1163     Mn  0.32258072  0.71909584  0.00363521     1.49560
O1164       O  0.33807340  0.77934050  0.04259269    -0.91700
C1165       C  0.23387035  0.76631088  0.05759543     1.19370
C1166       C  0.35907924  0.76667348  0.02925154     1.11430
Mn1167     Mn  0.24380660  0.73148957  0.00107853     1.80970
O1168       O  0.23015617  0.77018456  0.92305995    -0.96850
Mn1169     Mn  0.29189926  0.77761028  0.04190333     1.49260
C1170       C  0.31652208  0.72800003  0.07231658     1.07950
Mn1171     Mn  0.23028715  0.72753847  0.92159730     1.49930
C1172       C  0.27859019  0.70279124  0.88432710     1.10860
O1173       O  0.29251137  0.69028798  0.99567621    -1.02650
O1174       O  0.20225802  0.82295440  0.95538706    -0.92310
C1175       C  0.27734268  0.67648642  0.01206364     1.22140
O1176       O  0.20626659  0.73601983  0.95378823    -1.03040
O1177       O  0.23833855  0.84224162  0.98295777    -0.90440
O1178       O  0.25875961  0.72210179  0.88648228    -0.90050
O1179       O  0.35499294  0.75089912  0.00625080    -0.90070
Mn1180     Mn  0.24179729  0.81026149  0.01465843     1.47860
O1181       O  0.27152532  0.79023890  0.91920123    -0.78540
C1182       C  0.33491785  0.73366107  0.94536704     1.15190
O1183       O  0.22727725  0.74121420  0.04649014    -0.77280
O1184       O  0.30319444  0.81460971  0.97424489    -0.76890
Mn1185     Mn  0.28914910  0.69139250  0.95294617     1.51060
O1186       O  0.22284653  0.68210415  0.91900064    -0.89240
O1187       O  0.28370555  0.80773563  0.01461058    -0.96770
O1188       O  0.29110414  0.69169264  0.90671021    -0.91780
C1189       C  0.29923255  0.82334166  0.00084316     1.12980
O1190       O  0.85147016  0.51114404  0.71237597    -0.88430
C1191       C  0.74249449  0.60561586  0.79544562     1.11610
O1192       O  0.78470821  0.51034350  0.72286804    -1.36230
O1193       O  0.79676557  0.57357102  0.81780512    -0.89910
O1194       O  0.83039408  0.46975467  0.69583951    -0.90580
O1195       O  0.79519822  0.44855040  0.76099097    -0.79400
O1196       O  0.82116210  0.54225806  0.76246172    -1.01490
C1197       C  0.74294647  0.48072533  0.82180155     1.21660
O1198       O  0.73437835  0.48783526  0.74776577    -1.36380
Mn1199     Mn  0.74126292  0.53141496  0.72764849     1.82050
O1200       O  0.76879096  0.47668137  0.81245310    -0.78470
O1201       O  0.76557292  0.54132480  0.83664237    -0.87870
C1202       C  0.68705216  0.54608195  0.76295794     1.12740
C1203       C  0.78125653  0.56429407  0.83903137     1.07470
O1204       O  0.72442629  0.52110341  0.68313820    -0.79410
O1205       O  0.76070217  0.53684191  0.77196695    -1.33110
O1206       O  0.74355077  0.47944615  0.68742426    -0.98620
C1207       C  0.70401470  0.41945283  0.76664746     1.06180
Mn1208     Mn  0.73143140  0.53864905  0.80685624     1.48570
O1209       O  0.72588647  0.42116355  0.74977129    -0.87820
Mn1210     Mn  0.78594470  0.47712176  0.69067175     1.49560
O1211       O  0.81552148  0.54490585  0.67405753    -0.91700
C1212       C  0.83597514  0.52762230  0.77800089     1.19370
C1213       C  0.81149085  0.52661966  0.65288702     1.11430
Mn1214     Mn  0.77904407  0.49312513  0.76790285     1.80970
O1215       O  0.70106540  0.53038451  0.77843282    -0.96850
Mn1216     Mn  0.81870917  0.54054119  0.71983544     1.49260
C1217       C  0.85129968  0.48827503  0.69611029     1.07950
Mn1218     Mn  0.69904077  0.48794096  0.77694107     1.49930
C1219       C  0.66482759  0.46229553  0.72695412     1.10860
O1220       O  0.77359368  0.45138807  0.72059430    -1.02650
O1221       O  0.72947481  0.58465047  0.80834006    -0.92310
C1222       C  0.78814766  0.43663898  0.73659443     1.22140
O1223       O  0.72809118  0.49618909  0.80689686    -1.03040
O1224       O  0.75991287  0.60158151  0.77430428    -0.90440
O1225       O  0.66786618  0.48482135  0.74363957    -0.90050
O1226       O  0.79664135  0.50312340  0.65535616    -0.90070
Mn1227     Mn  0.79156466  0.57029024  0.77197797     1.47860
O1228       O  0.69759580  0.55036527  0.73734888    -0.78540
C1229       C  0.72957263  0.49574809  0.67232646     1.15190
O1230       O  0.82439263  0.50314969  0.78523365    -0.77280
O1231       O  0.75194633  0.57624057  0.70903999    -0.76890
Mn1232     Mn  0.73191230  0.45244405  0.71790876     1.51060
O1233       O  0.69414032  0.44188576  0.78032414    -0.89240
O1234       O  0.78993515  0.56751393  0.73036240    -0.96770
O1235       O  0.68604673  0.45206765  0.71184242    -0.91780
C1236       C  0.77791998  0.58445591  0.71516237     1.12980
O1237       O  0.69263930  0.22716184  0.94913871    -0.88430
C1238       C  0.85354356  0.22813124  0.97712597     1.11610
O1239       O  0.73505595  0.27173118  0.96812185    -1.36230
O1240       O  0.80450316  0.19015466  0.99514263    -0.89910
O1241       O  0.67242908  0.27099988  0.94413633    -0.90580
O1242       O  0.69275980  0.26242572  0.02582576    -0.79400
O1243       O  0.75049739  0.21007137  0.96842512    -1.01490
C1244       C  0.76959321  0.25233361  0.07173791     1.21660
O1245       O  0.75518797  0.29899345  0.01632286    -1.36380
Mn1246     Mn  0.77715068  0.29383494  0.97416112     1.82060
O1247       O  0.74660139  0.24343031  0.05830105    -0.78470
O1248       O  0.81073320  0.20451314  0.04182895    -0.87870
C1249       C  0.83269776  0.30157904  0.00507484     1.12740
C1250       C  0.81117457  0.18476406  0.02150988     1.07470
O1251       O  0.76768010  0.33811334  0.95733596    -0.79410
O1252       O  0.78373029  0.25087917  0.99592173    -1.33110
O1253       O  0.72653361  0.33351924  0.97663273    -0.98620
C1254       C  0.73288318  0.32063725  0.08223901     1.06180
Mn1255     Mn  0.81507894  0.24894829  0.03015032     1.48570
O1256       O  0.71332800  0.32022818  0.06220719    -0.87820
Mn1257     Mn  0.70242416  0.30224340  0.95984075     1.49560
O1258       O  0.72268015  0.26022110  0.90400150    -0.91700
C1259       C  0.73664348  0.19609777  0.98609234     1.19370
C1260       C  0.71610201  0.28608248  0.89712042     1.11430
Mn1261     Mn  0.73885824  0.25540336  0.01284351     1.80970
O1262       O  0.81530725  0.28858976  0.01933687    -0.96850
Mn1263     Mn  0.73517358  0.23611290  0.93925602     1.49260
C1264       C  0.67247561  0.24336918  0.93985319     1.07950
Mn1265     Mn  0.78801263  0.30603340  0.04505765     1.49930
C1266       C  0.77570004  0.36420355  0.03507924     1.10860
O1267       O  0.69413784  0.30118834  0.00156539    -1.02650
O1268       O  0.84962264  0.23518465  0.00395962    -0.92310
C1269       C  0.67948989  0.28448715  0.01552389     1.22140
O1270       O  0.78766024  0.26586165  0.05804322    -1.03040
O1271       O  0.83404661  0.23147807  0.95755215    -0.90440
O1272       O  0.78824141  0.34395775  0.02173427    -0.90050
O1273       O  0.71472379  0.30726000  0.91581217    -0.90070
Mn1274     Mn  0.79119627  0.21898153  0.96463003     1.47860
O1275       O  0.82223717  0.31103933  0.98136223    -0.78540
C1276       C  0.74300827  0.34908098  0.96362851     1.15190
O1277       O  0.72562813  0.21026340  0.00734102    -0.77280
O1278       O  0.79366727  0.28576534  0.93075677    -0.76890
Mn1279     Mn  0.72128722  0.32997821  0.01842784     1.51060
O1280       O  0.76016775  0.32058423  0.07742334    -0.89240
O1281       O  0.77601958  0.24307806  0.93427775    -0.96770
O1282       O  0.74803278  0.36536035  0.03401780    -0.91780
C1283       C  0.78874891  0.26081176  0.91946399     1.12980
O1284       O  0.23600886  0.93625523  0.64587569    -0.88430
C1285       C  0.21188944  0.97657514  0.80921396     1.11610
O1286       O  0.26501797  0.97762845  0.69373642    -1.36230
O1287       O  0.16900233  0.99184510  0.74936408    -0.89910
O1288       O  0.26469278  0.97101278  0.62751331    -0.90580
O1289       O  0.25154433  0.03813669  0.65260635    -0.79400
O1290       O  0.20508834  0.96570137  0.69909351    -1.01490
C1291       C  0.22939352  0.07534280  0.73316695     1.21660
O1292       O  0.28552345  0.02806167  0.71994356    -1.36380
Mn1293     Mn  0.28259806  0.98419024  0.73917631     1.82050
O1294       O  0.22305039  0.06464286  0.70769827    -0.78470
O1295       O  0.18705417  0.03527047  0.76331999    -0.87870
C1296       C  0.28672919  0.01785280  0.79675228     1.12740
C1297       C  0.16844096  0.01468073  0.76573582     1.07470
O1298       O  0.32796926  0.97062249  0.73011121    -0.79410
O1299       O  0.23677713  0.00010538  0.74184301    -1.33110
O1300       O  0.32526294  0.99153749  0.68866959    -0.98620
C1301       C  0.30208388  0.09886367  0.70208608     1.06180
Mn1302     Mn  0.23079549  0.03133715  0.77413319     1.48570
O1303       O  0.30859681  0.07891364  0.68322181    -0.87820
Mn1304     Mn  0.29590228  0.97831351  0.65998649     1.49560
O1305       O  0.27481355  0.91424537  0.69168941    -0.91700
C1306       C  0.19011226  0.98101115  0.68395285     1.19370
C1307       C  0.29215361  0.91122811  0.67031348     1.11430
Mn1308     Mn  0.24247004  0.02027887  0.69817898     1.80970
O1309       O  0.27207614  0.03034087  0.77949336    -0.96850
Mn1310     Mn  0.23856801  0.94071350  0.69168579     1.49260
C1311       C  0.24965839  0.94767679  0.62450892     1.07950
Mn1312     Mn  0.28560814  0.05942572  0.75366943     1.49930
C1313       C  0.35196444  0.05313964  0.74501989     1.10860
O1314       O  0.29085111  0.01939366  0.66106697    -1.02650
O1315       O  0.22127517  0.00240390  0.80641099    -0.92310
C1316       C  0.27731130  0.03292881  0.64374790     1.22140
O1317       O  0.24421819  0.05976902  0.74767361    -1.03040
O1318       O  0.20655373  0.95928529  0.78756733    -0.90440
O1319       O  0.33078141  0.05629426  0.76309673    -0.90050
O1320       O  0.30413526  0.93309748  0.65793023    -0.90070
Mn1321     Mn  0.20526893  0.96604234  0.74207922     1.47860
O1322       O  0.29814885  0.99486652  0.78575899    -0.78540
C1323       C  0.33976719  0.97744974  0.70558159     1.15190
O1324       O  0.19942931  0.00710219  0.67976568    -0.77280
O1325       O  0.27519485  0.93944220  0.75765378    -0.76890
Mn1326     Mn  0.31782850  0.03395528  0.68877907     1.51060
O1327       O  0.29394334  0.09352949  0.72787858    -0.89240
O1328       O  0.23748860  0.94264708  0.73314064    -0.96770
O1329       O  0.34878120  0.04546332  0.71832509    -0.91780
C1330       C  0.25102806  0.92789901  0.74959572     1.12980
O1331       O  0.11151245  0.30566134  0.73919154    -0.88430
C1332       C  0.99562570  0.21866109  0.82164187     1.11610
O1333       O  0.04530801  0.29692986  0.73439577    -1.36230
O1334       O  0.05666752  0.19860779  0.78132960    -0.89910
O1335       O  0.09172218  0.33407516  0.70475243    -0.90580
O1336       O  0.05976005  0.26536873  0.66929194    -0.79400
O1337       O  0.07706436  0.25671457  0.76139721    -1.01490
C1338       C  0.00836296  0.19833506  0.69739177     1.21660
O1339       O  0.99747999  0.27324856  0.70510087    -1.36380
Mn1340     Mn  0.00053318  0.29199174  0.75072156     1.82060
O1341       O  0.03283161  0.21028263  0.69207626    -0.78470
O1342       O  0.01435333  0.17984821  0.76430531    -0.87870
C1343       C  0.94582575  0.25872306  0.75753888     1.12740
C1344       C  0.03863929  0.17742772  0.77760940     1.07470
O1345       O  0.98310103  0.33784716  0.74305965    -0.79410
O1346       O  0.01913662  0.24726627  0.75499336    -1.33110
O1347       O  0.00548701  0.32858370  0.70610136    -0.98620
C1348       C  0.97901094  0.25359697  0.63349380     1.06180
Mn1349     Mn  0.98749287  0.21420779  0.75449020     1.48570
O1350       O  0.99352715  0.27720710  0.63700606    -0.87820
Mn1351     Mn  0.04638039  0.33202559  0.70757474     1.49560
O1352       O  0.07758749  0.34314067  0.77766939    -0.91700
C1353       C  0.09326889  0.24285903  0.74611809     1.19370
C1354       C  0.06869868  0.36172473  0.75930069     1.11430
Mn1355     Mn  0.04050815  0.25410760  0.71177435     1.80970
O1356       O  0.96126965  0.24357812  0.74245960    -0.96850
Mn1357     Mn  0.07739070  0.29792930  0.76781781     1.49260
C1358       C  0.11366894  0.32290558  0.71761209     1.07950
Mn1359     Mn  0.96466407  0.24213640  0.70028521     1.49930
C1360       C  0.93045522  0.29650545  0.68237063     1.10860
O1361       O  0.03992464  0.30666016  0.67368881    -1.02650
O1362       O  0.97835634  0.21699826  0.79948719    -0.92310
C1363       C  0.05600435  0.29109595  0.65979289     1.22140
O1364       O  0.99182125  0.21266640  0.71202993    -1.03040
O1365       O  0.02053711  0.23110705  0.82107701    -0.90440
O1366       O  0.93242372  0.27170254  0.69406400    -0.90050
O1367       O  0.04513422  0.35703160  0.74572497    -0.90070
Mn1368     Mn  0.04941716  0.24311004  0.78887813     1.47860
O1369       O  0.95618347  0.28345273  0.76506216    -0.78540
C1370       C  0.99025121  0.34597723  0.71755817     1.15190
O1371       O  0.08399652  0.23709220  0.72048885    -0.77280
O1372       O  0.00720479  0.30693128  0.79631831    -0.76890
Mn1373     Mn  0.99754436  0.30495379  0.67289355     1.51060
O1374       O  0.96938850  0.23781939  0.65445581    -0.89240
O1375       O  0.04776117  0.28527216  0.79526219    -0.96770
O1376       O  0.95206588  0.31106519  0.67288829    -0.91780
C1377       C  0.03048520  0.29943795  0.80937610     1.12980
O1378       O  0.02170142  0.09631043  0.47108010    -0.88430
C1379       C  0.92309227  0.98309004  0.53905018     1.11610
O1380       O  0.01472898  0.03094363  0.47139154    -1.36230
O1381       O  0.95202896  0.03509457  0.56551695    -0.89910
O1382       O  0.04577509  0.07639082  0.43364589    -0.90580
O1383       O  0.07726355  0.04561212  0.50563662    -0.79400
O1384       O  0.98392532  0.06403701  0.51393635    -1.01490
C1385       C  0.04774353  0.98891864  0.56815870     1.21660
O1386       O  0.03891844  0.98197170  0.49417512    -1.36380
Mn1387     Mn  0.99431087  0.98706562  0.47436157     1.82060
O1388       O  0.05211145  0.01505171  0.55950887    -0.78470
O1389       O  0.98679314  0.00686370  0.58444338    -0.87870
C1390       C  0.98213697  0.93149638  0.50745374     1.12740
C1391       C  0.96497711  0.02349311  0.58736161     1.07470
O1392       O  0.00425820  0.96818909  0.43025933    -0.79410
O1393       O  0.99049469  0.00547546  0.51908786    -1.33110
O1394       O  0.04447523  0.98899564  0.43691216    -0.98620
C1395       C  0.10818870  0.95681450  0.51262721     1.06180
Mn1396     Mn  0.98983257  0.97490262  0.55242347     1.48570
O1397       O  0.10487217  0.98024292  0.49849219    -0.87820
Mn1398     Mn  0.04275656  0.03086752  0.43611511     1.49560
O1399       O  0.98466141  0.06949750  0.42533954    -0.91700
C1400       C  0.99684601  0.07971603  0.53074524     1.19370
C1401       C  0.99412350  0.05484844  0.40337178     1.11430
Mn1402     Mn  0.03378065  0.02599404  0.51555817     1.80970
O1403       O  0.99825950  0.94590962  0.52289941    -0.96850
Mn1404     Mn  0.98728614  0.06632576  0.47159597     1.49260
C1405       C  0.03591220  0.09870178  0.44736702     1.07950
Mn1406     Mn  0.04051577  0.94612315  0.52187443     1.49930
C1407       C  0.06652730  0.91395760  0.47226445     1.10860
O1408       O  0.07301004  0.02429304  0.46442699    -1.02650
O1409       O  0.94397021  0.97133396  0.55317731    -0.92310
C1410       C  0.08722276  0.04079172  0.47976040     1.22140
O1411       O  0.03215837  0.97403312  0.55257132    -1.03040
O1412       O  0.92743038  0.99862754  0.51676228    -0.90440
O1413       O  0.04351408  0.91616820  0.48749849    -0.90050
O1414       O  0.00814979  0.03149271  0.40669177    -0.90070
Mn1415     Mn  0.95586347  0.03360856  0.51937061     1.47860
O1416       O  0.97559182  0.94280971  0.48280691    -0.78540
C1417       C  0.03019133  0.97283746  0.42154604     1.15190
O1418       O  0.02252581  0.07040596  0.53655033    -0.77280
O1419       O  0.94936453  0.99897522  0.45518224    -0.76890
Mn1420     Mn  0.07416173  0.98204423  0.46521891     1.51060
O1421       O  0.08673592  0.94421742  0.52524455    -0.89240
O1422       O  0.95884504  0.03694156  0.47767085    -0.96770
O1423       O  0.07812741  0.93611775  0.46004023    -0.91780
C1424       C  0.94205824  0.02544033  0.46119167     1.12980
O1425       O  0.54831424  0.94551552  0.07214246    -0.88430
C1426       C  0.55173090  0.99443127  0.90986162     1.11610
O1427       O  0.50445069  0.97762927  0.02860913    -1.36230
O1428       O  0.58946363  0.01444389  0.96515058    -0.89910
O1429       O  0.51240014  0.97071660  0.09182914    -0.90580
O1430       O  0.50725828  0.04024493  0.07119946    -0.79400
O1431       O  0.56523593  0.98146288  0.01738920    -1.01490
C1432       C  0.51590729  0.08347525  0.99625394     1.21660
O1433       O  0.47273759  0.02313062  0.00685076    -1.36380
Mn1434     Mn  0.48288246  0.98156380  0.98516794     1.82060
O1435       O  0.52665006  0.07073636  0.01848137    -0.78470
O1436       O  0.56538096  0.05605154  0.95648270    -0.87870
C1437       C  0.47192810  0.01288466  0.92920109     1.12740
C1438       C  0.58757149  0.03949006  0.95340073     1.07470
O1439       O  0.44081047  0.95928243  0.99456580    -0.79410
O1440       O  0.52401871  0.00798245  0.98021413    -1.33110
O1441       O  0.44342861  0.97731234  0.03763440    -0.98620
C1442       C  0.43520735  0.08332834  0.03029210     1.06180
Mn1443     Mn  0.52236889  0.04212512  0.94985418     1.48570
O1444       O  0.44231209  0.06428642  0.04891800    -0.87820
Mn1445     Mn  0.47684618  0.97038618  0.06345769     1.49560
O1446       O  0.51352289  0.91185097  0.03100230    -0.91700
C1447       C  0.57708515  0.99965661  0.03314323     1.19370
C1448       C  0.49426832  0.90548545  0.04995351     1.11430
Mn1449     Mn  0.51709778  0.02446398  0.02537172     1.80970
O1450       O  0.48277279  0.03016560  0.94624139    -0.96850
Mn1451     Mn  0.53966014  0.94870287  0.02695747     1.49260
C1452       C  0.53014641  0.94973371  0.09280897     1.07950
Mn1453     Mn  0.46327401  0.05323077  0.97516273     1.49930
C1454       C  0.40271127  0.03410392  0.98635100     1.10860
O1455       O  0.47322810  0.01142825  0.06458369    -1.02650
O1456       O  0.53841071  0.01822223  0.91462436    -0.92310
C1457       C  0.48460737  0.02821901  0.08145650     1.22140
O1458       O  0.50315490  0.06819296  0.97825177    -1.03040
O1459       O  0.55440711  0.97489513  0.92929468    -0.90440
O1460       O  0.42386710  0.03156067  0.96861915    -0.90050
O1461       O  0.47752573  0.92446358  0.06184952    -0.90070
Mn1462     Mn  0.56009504  0.98138053  0.97465802     1.47860
O1463       O  0.46609596  0.98803622  0.93988101    -0.78540
C1464       C  0.43011986  0.96193291  0.02042090     1.15190
O1465       O  0.56219887  0.02178509  0.04096700    -0.77280
O1466       O  0.49520616  0.93922147  0.96593064    -0.76890
Mn1467     Mn  0.44131356  0.01980968  0.04001912     1.51060
O1468       O  0.44361126  0.08251127  0.00365799    -0.89240
O1469       O  0.53458039  0.95076015  0.98560687    -0.96770
O1470       O  0.40462789  0.02713862  0.01336660    -0.91780
C1471       C  0.52151951  0.93313068  0.97064811     1.12980
O1472       O  0.08887078  0.54798977  0.90427018    -0.88430
C1473       C  0.92279582  0.56217497  0.94914104     1.11610
O1474       O  0.04128764  0.51186322  0.94172020    -1.36230
O1475       O  0.98505434  0.60417018  0.96928722    -0.89910
O1476       O  0.10847552  0.51669851  0.93513839    -0.90580
O1477       O  0.08202477  0.51930919  0.00679153    -0.79400
O1478       O  0.03304128  0.57034250  0.93836398    -1.01490
C1479       C  0.99956797  0.54250013  0.04300351     1.21660
O1480       O  0.01776096  0.48648674  0.99072974    -1.36380
Mn1481     Mn  0.99654891  0.49109608  0.94783982     1.82050
O1482       O  0.02607407  0.54817236  0.03585941    -0.78470
O1483       O  0.95616144  0.58293148  0.00236637    -0.87870
C1484       C  0.94278551  0.47933349  0.98647755     1.12740
C1485       C  0.96503862  0.60550964  0.98870591     1.07470
O1486       O  0.00688951  0.44627128  0.92896509    -0.79410
O1487       O  0.99228799  0.53595493  0.96784331    -1.33110
O1488       O  0.04842715  0.45326242  0.94674433    -0.98620
C1489       C  0.03902693  0.46193475  0.05715358     1.06180
Mn1490     Mn  0.95826527  0.53701409  0.99730653     1.48570
O1491       O  0.05317930  0.45106960  0.03547356    -0.87820
Mn1492     Mn  0.07660933  0.48352329  0.93825886     1.49560
O1493       O  0.04926625  0.51247045  0.87205983    -0.91700
C1494       C  0.04823222  0.58541235  0.95439968     1.19370
C1495       C  0.07042261  0.49448568  0.86961927     1.11430
Mn1496     Mn  0.03678424  0.53061676  0.98831770     1.80970
O1497       O  0.96034936  0.49533698  0.99713311    -0.96850
Mn1498     Mn  0.04271198  0.54234106  0.90732139     1.49260
C1499       C  0.11075753  0.53334938  0.91310665     1.07950
Mn1500     Mn  0.98971919  0.48642731  0.02526133     1.49930
C1501       C  0.99884816  0.41849702  0.01443515     1.10860
O1502       O  0.07510902  0.48287489  0.98058119    -1.02650
O1503       O  0.92514005  0.54042907  0.96616571    -0.92310
C1504       C  0.09162459  0.49464345  0.99723851     1.22140
O1505       O  0.98853218  0.52805147  0.02421232    -1.03040
O1506       O  0.94442690  0.57175320  0.93424720    -0.90440
O1507       O  0.98639640  0.44063025  0.02615885    -0.90050
O1508       O  0.07922909  0.47965214  0.89160057    -0.90070
Mn1509     Mn  0.99059191  0.57037552  0.93802016     1.47860
O1510       O  0.95066889  0.47177949  0.96027618    -0.78540
C1511       C  0.03325771  0.43741021  0.93184789     1.15190
O1512       O  0.05389761  0.57508112  0.97976678    -0.77280
O1513       O  0.97785750  0.50055932  0.90413696    -0.76890
Mn1514     Mn  0.04798540  0.45283259  0.98941793     1.51060
O1515       O  0.02378914  0.48474587  0.05483673    -0.89240
O1516       O  0.00008226  0.54111421  0.90810716    -0.96770
O1517       O  0.01680322  0.42040097  0.99330033    -0.91780
C1518       C  0.98420678  0.52542728  0.89339242     1.12980
O1519       O  0.31373209  0.33484576  0.42328382    -0.88430
C1520       C  0.17692270  0.23896464  0.43143744     1.11610
O1521       O  0.29884544  0.27330039  0.44353854    -1.36230
O1522       O  0.19755216  0.30525706  0.46647539    -0.89910
O1523       O  0.34983746  0.31511828  0.44835833    -0.90580
O1524       O  0.31642021  0.29495179  0.51034970    -0.79400
O1525       O  0.25376874  0.31846675  0.44114319    -1.01490
C1526       C  0.24553526  0.26352327  0.53831541     1.21660
O1527       O  0.29108866  0.23182816  0.48722625    -1.36380
Mn1528     Mn  0.27615353  0.23248441  0.44182784     1.82050
O1529       O  0.26303452  0.27982306  0.52557357    -0.78470
O1530       O  0.18748814  0.27174314  0.50072298    -0.87870
C1531       C  0.23775630  0.18381826  0.45891774     1.12740
C1532       C  0.18367576  0.29647327  0.48853969     1.07470
O1533       O  0.30884282  0.20514820  0.42370158    -0.79410
O1534       O  0.24311398  0.25869100  0.46314431    -1.33110
O1535       O  0.34088111  0.22636270  0.45063947    -0.98620
C1536       C  0.31717546  0.22113492  0.55736122     1.06180
Mn1537     Mn  0.21221795  0.23428377  0.49011054     1.48570
O1538       O  0.33517599  0.22708365  0.53733929    -0.87820
Mn1539     Mn  0.34449730  0.26861142  0.44489864     1.49560
O1540       O  0.30566146  0.28131517  0.37771625    -0.91700
C1541       C  0.25476457  0.33278815  0.46424362     1.19370
C1542       C  0.32248948  0.25913602  0.37941443     1.11430
Mn1543     Mn  0.28043674  0.27748000  0.48607042     1.80970
O1544       O  0.23352168  0.19627437  0.48342937    -0.96850
Mn1545     Mn  0.28228533  0.30261223  0.41207928     1.49260
C1546       C  0.33043536  0.33499688  0.44594212     1.07950
Mn1547     Mn  0.26369741  0.20485402  0.51541824     1.49930
C1548       C  0.31341276  0.16109018  0.49717356     1.10860
O1549       O  0.34640086  0.26670098  0.48912065    -1.02650
O1550       O  0.18294723  0.22483635  0.45473110    -0.92310
C1551       C  0.34147545  0.28410512  0.50936229     1.22140
O1552       O  0.23767380  0.23939497  0.52667475    -1.03040
O1553       O  0.19133673  0.26087754  0.42312054    -0.90440
O1554       O  0.28671990  0.16560026  0.50408935    -0.90050
O1555       O  0.34406704  0.25996834  0.39783794    -0.90070
Mn1556     Mn  0.22353410  0.28911660  0.43477332     1.47860
O1557       O  0.25491885  0.19472551  0.44111223    -0.78540
C1558       C  0.33422708  0.20577032  0.43445585     1.15190
O1559       O  0.26799218  0.32193505  0.48570532    -0.77280
O1560       O  0.25776282  0.23235850  0.39798261    -0.76890
Mn1561     Mn  0.33673806  0.22545133  0.49262800     1.51060
O1562       O  0.29080038  0.21269233  0.55284473    -0.89240
O1563       O  0.24861679  0.27714433  0.40368451    -0.96770
O1564       O  0.33179309  0.18141401  0.49369866    -0.91780
C1565       C  0.24487286  0.25480218  0.38905163     1.12980
O1566       O  0.48722619  0.32144745  0.17321412    -0.88430
C1567       C  0.46516137  0.15820203  0.20563511     1.11610
O1568       O  0.51714677  0.27420574  0.20824754    -1.36230
O1569       O  0.42483754  0.21945677  0.22662752    -0.89910
O1570       O  0.51619177  0.34059556  0.20861073    -0.90580
O1571       O  0.50719967  0.31228600  0.27223513    -0.79400
O1572       O  0.45947990  0.26598202  0.19903725    -1.01490
C1573       C  0.48183240  0.22786551  0.30260251     1.21660
O1574       O  0.53984153  0.24746803  0.25599599    -1.36380
Mn1575     Mn  0.53627585  0.22963809  0.20914825     1.82050
O1576       O  0.47524660  0.25407698  0.29530844    -0.78470
O1577       O  0.44463739  0.18778552  0.25797699    -0.87870
C1578       C  0.54871609  0.17420068  0.24439172     1.12740
C1579       C  0.42260355  0.19928445  0.24537410     1.07470
O1580       O  0.58179079  0.24217382  0.19187365    -0.79410
O1581       O  0.49178905  0.22429988  0.22828714    -1.33110
O1582       O  0.57410037  0.27834839  0.21786216    -0.98620
C1583       C  0.56379871  0.26495978  0.32815736     1.06180
Mn1584     Mn  0.49063703  0.18880529  0.25548577     1.48570
O1585       O  0.57627079  0.27786833  0.30678121    -0.87820
Mn1586     Mn  0.54728546  0.30866268  0.21044444     1.49560
O1587       O  0.52539957  0.27682383  0.14540951    -0.91700
C1588       C  0.44193420  0.28073156  0.21107501     1.19370
C1589       C  0.53945581  0.30032951  0.14242140     1.11430
Mn1590     Mn  0.49546159  0.26770311  0.25110329     1.80970
O1591       O  0.53269640  0.18911764  0.25873431    -0.96850
Mn1592     Mn  0.49016290  0.27552774  0.17272654     1.49260
C1593       C  0.49817503  0.34327072  0.18750807     1.07950
Mn1594     Mn  0.53992619  0.21707776  0.28991936     1.49930
C1595       C  0.60744336  0.22715746  0.28548383     1.10860
O1596       O  0.54768111  0.30602680  0.25275705    -1.02650
O1597       O  0.48883434  0.16045710  0.21993315    -0.92310
C1598       C  0.53371699  0.32145140  0.26866347     1.22140
O1599       O  0.49841916  0.21698595  0.28577011    -1.03040
O1600       O  0.45669646  0.17872893  0.18913926    -0.90440
O1601       O  0.58553161  0.21330817  0.29568686    -0.90050
O1602       O  0.55189270  0.31331104  0.16431709    -0.90070
Mn1603     Mn  0.45839892  0.22426500  0.19731678     1.47860
O1604       O  0.55429502  0.18440272  0.21868383    -0.78540
C1605       C  0.59093715  0.26725419  0.20148640     1.15190
O1606       O  0.44971465  0.28630766  0.23807417    -0.77280
O1607       O  0.52506840  0.21287908  0.16046528    -0.76890
Mn1608     Mn  0.57509579  0.27582750  0.26019543     1.51060
O1609       O  0.54189871  0.24792708  0.32416372    -0.89240
O1610       O  0.48936473  0.23413063  0.17264399    -0.96770
O1611       O  0.60514320  0.24194882  0.26217499    -0.91780
C1612       C  0.49895165  0.22008400  0.15307807     1.12980
O1613       O  0.20341408  0.44045286  0.28840358    -0.88430
C1614       C  0.24636699  0.44561499  0.12583064     1.11610
O1615       O  0.22788200  0.48576074  0.24422436    -1.36230
O1616       O  0.26108541  0.40176278  0.17601281    -0.89910
O1617       O  0.21010721  0.48548929  0.30792722    -0.90580
O1618       O  0.28559579  0.47761812  0.28880624    -0.79400
O1619       O  0.22883770  0.42480957  0.22981090    -1.01490
C1620       C  0.33296688  0.47329475  0.21503302     1.21660
O1621       O  0.27590036  0.51665327  0.22585105    -1.36380
Mn1622     Mn  0.23472813  0.50796141  0.20168056     1.82050
O1623       O  0.32175274  0.46022069  0.23686550    -0.78470
O1624       O  0.30230374  0.42636835  0.18338787    -0.87870
C1625       C  0.27110787  0.52143044  0.14814206     1.12740
C1626       C  0.28814832  0.40562975  0.17127807     1.07470
O1627       O  0.21549687  0.55091195  0.20990924    -0.79410
O1628       O  0.25770703  0.46663963  0.19684461    -1.33110
O1629       O  0.23296812  0.54744662  0.25260160    -0.98620
C1630       C  0.33921625  0.54546701  0.25561241     1.06180
Mn1631     Mn  0.29351370  0.46828054  0.17034669     1.48570
O1632       O  0.31815333  0.54342795  0.27363941    -0.87820
Mn1633     Mn  0.21960816  0.51621819  0.27707276     1.49560
O1634       O  0.16172024  0.47475570  0.25499002    -0.91700
C1635       C  0.24463018  0.41054591  0.24496530     1.19370
C1636       C  0.15660048  0.50082024  0.26373707     1.11430
Mn1637     Mn  0.27377043  0.47080455  0.24226447     1.80970
O1638       O  0.28640189  0.50905771  0.16511023    -0.96850
Mn1639     Mn  0.19832592  0.45020530  0.24376098     1.49260
C1640       C  0.20635622  0.45813005  0.31025271     1.07950
Mn1641     Mn  0.30838774  0.52643539  0.19672338     1.49930
C1642       C  0.29351485  0.58914856  0.21090496     1.10860
O1643       O  0.26052858  0.51494824  0.28403302    -1.02650
O1644       O  0.27188392  0.45369497  0.13337502    -0.92310
C1645       C  0.27399270  0.49986022  0.30060162     1.22140
O1646       O  0.31525194  0.48608198  0.20124665    -1.03040
O1647       O  0.22537336  0.44211601  0.14386671    -0.90440
O1648       O  0.29662951  0.57002735  0.19029456    -0.90050
O1649       O  0.17621231  0.52058842  0.26644416    -0.90070
Mn1650     Mn  0.22903786  0.43169372  0.18814659     1.47860
O1651       O  0.24523798  0.52586622  0.15720627    -0.78540
C1652       C  0.21978949  0.56218860  0.23529103     1.15190
O1653       O  0.26704459  0.42420838  0.25534012    -0.77280
O1654       O  0.19190599  0.49660743  0.18212052    -0.76890
Mn1655     Mn  0.27423254  0.54657997  0.26088104     1.51060
O1656       O  0.33651155  0.54024417  0.22834192    -0.89240
O1657       O  0.19738378  0.45588404  0.20186345    -0.96770
O1658       O  0.28533004  0.58273153  0.23673284    -0.91780
C1659       C  0.18176266  0.47135241  0.18772793     1.12980
O1660       O  0.60592399  0.53767974  0.46500980    -0.88430
C1661       C  0.44380781  0.53967240  0.45968426     1.11610
O1662       O  0.56173342  0.49652400  0.46850573    -1.36230
O1663       O  0.48762197  0.57843923  0.49070548    -0.89910
O1664       O  0.63036691  0.49717913  0.46041087    -0.90580
O1665       O  0.59264380  0.50419876  0.53313180    -0.79400
O1666       O  0.54595722  0.55730119  0.47132594    -1.01490
C1667       C  0.51308179  0.50951162  0.56515843     1.21660
O1668       O  0.53293385  0.46608616  0.51015600    -1.36380
Mn1669     Mn  0.51947437  0.47522046  0.46492069     1.82060
O1670       O  0.53691138  0.52065827  0.55679881    -0.78470
O1671       O  0.47781777  0.55746369  0.53370411    -0.87870
C1672       C  0.45968554  0.46284277  0.48384205     1.12740
C1673       C  0.47891595  0.57960566  0.51724409     1.07470
O1674       O  0.53083005  0.43314655  0.44578544    -0.79410
O1675       O  0.50895837  0.51630325  0.48854651    -1.33110
O1676       O  0.56853788  0.43444730  0.47270537    -0.98620
C1677       C  0.54424409  0.43727261  0.57847893     1.06180
Mn1678     Mn  0.47316784  0.51518537  0.51692782     1.48570
O1679       O  0.56657281  0.43747819  0.56172903    -0.87820
Mn1680     Mn  0.59626795  0.46598592  0.46528629     1.49560
O1681       O  0.58224994  0.50956319  0.40929517    -0.91700
C1682       C  0.55712215  0.57234665  0.49000858     1.19370
C1683       C  0.58993312  0.48422096  0.40127227     1.11430
Mn1684     Mn  0.55035762  0.51133112  0.51262019     1.80970
O1685       O  0.47114553  0.47460172  0.50498630    -0.96850
Mn1686     Mn  0.56638025  0.53330412  0.44372586     1.49260
C1687       C  0.62608588  0.52347756  0.45293817     1.07950
Mn1688     Mn  0.49590418  0.45752697  0.53440714     1.49930
C1689       C  0.51122366  0.39617414  0.52635571     1.10860
O1690       O  0.59517967  0.46499263  0.50798362    -1.02650
O1691       O  0.44331146  0.53140950  0.48637446    -0.92310
C1692       C  0.60668995  0.48158130  0.52557519     1.22140
O1693       O  0.49754170  0.49786654  0.54654094    -1.03040
O1694       O  0.46640627  0.53841937  0.44392941    -0.90440
O1695       O  0.49332789  0.41524614  0.51748557    -0.90050
O1696       O  0.59363821  0.46317276  0.41907709    -0.90070
Mn1697     Mn  0.50655132  0.55049288  0.45983035     1.47860
O1698       O  0.47572441  0.45759794  0.46207579    -0.78540
C1699       C  0.55365304  0.42092965  0.45502446     1.15190
O1700       O  0.56491306  0.55831128  0.51260000    -0.77280
O1701       O  0.51064009  0.48630359  0.41982248    -0.76890
Mn1702     Mn  0.56604723  0.43462925  0.51533269     1.51060
O1703       O  0.51876942  0.44342364  0.56989215    -0.89240
O1704       O  0.52706416  0.52849650  0.43020850    -0.96770
O1705       O  0.53836137  0.39797458  0.52063498    -0.91780
C1706       C  0.51778743  0.51159021  0.41154097     1.12980
C1707       C  0.26038782  0.97777163  0.21429344     0.02040
C1708       C  0.27185148  0.00465607  0.22768969     0.02040
C1709       C  0.25906608  0.01790415  0.25429827     0.02040
C1710       C  0.23512293  0.00312368  0.26858607     0.02040
C1711       C  0.22356790  0.97597233  0.25528158     0.02040
C1712       C  0.23679558  0.96281439  0.22892400     0.02040
C1713       C  0.92172566  0.66853444  0.49006738    -0.13590
C1714       C  0.91872816  0.64555722  0.46923796     0.08560
C1715       C  0.89197156  0.64075183  0.45463909    -0.13590
C1716       C  0.87180124  0.66325832  0.45423647    -0.13590
C1717       C  0.87754458  0.68935129  0.47039518     0.08560
C1718       C  0.90121165  0.69087177  0.49032258    -0.13590
H1719       H  0.94223488  0.67198502  0.50191125     0.12540
H1720       H  0.88927433  0.62252536  0.43904184     0.12540
H1721       H  0.85266360  0.66090856  0.44003418     0.12540
H1722       H  0.90516770  0.71024211  0.50411558     0.12540
C1723       C  0.94925926  0.68968248  0.36981446    -0.13590
C1724       C  0.97469051  0.67974978  0.38484481     0.08560
C1725       C  0.00090510  0.69497553  0.37995074    -0.13590
C1726       C  0.00189419  0.71852575  0.36020365    -0.13590
C1727       C  0.97678434  0.72828856  0.34455580     0.08560
C1728       C  0.95026427  0.71355956  0.35022416    -0.13590
H1729       H  0.92842670  0.67852812  0.37281109     0.09110
H1730       H  0.02077532  0.68862392  0.39130908     0.12540
H1731       H  0.02320714  0.72753463  0.35566852     0.12540
H1732       H  0.93073237  0.71891992  0.33777415     0.12540
C1733       C  0.77071795  0.70084376  0.34525145    -0.13590
C1734       C  0.79275289  0.67972782  0.34159750     0.08560
C1735       C  0.81920893  0.68558231  0.35743064    -0.13590
C1736       C  0.82240717  0.71058842  0.37710429    -0.13590
C1737       C  0.79994677  0.73185715  0.38077734     0.08560
C1738       C  0.77447896  0.72595915  0.36362369    -0.13590
H1739       H  0.75041474  0.69841021  0.33282031     0.12540
H1740       H  0.83762953  0.67104783  0.35432578     0.12540
H1741       H  0.84225693  0.71267239  0.39019858     0.12540
H1742       H  0.75591412  0.73960736  0.36602062     0.12540
C1743       C  0.83803147  0.70198972  0.25344765    -0.13590
C1744       C  0.83239073  0.67209092  0.25826668     0.08560
C1745       C  0.85512253  0.65420711  0.26894889    -0.13590
C1746       C  0.88263749  0.66595377  0.27482342    -0.13590
C1747       C  0.88826162  0.69542458  0.26920454     0.08560
C1748       C  0.86579646  0.71363620  0.25924953    -0.13590
H1749       H  0.82065040  0.71641658  0.24644161     0.12540
H1750       H  0.85142738  0.63131784  0.27407995     0.12540
H1751       H  0.90006595  0.65157207  0.28181995     0.12540
H1752       H  0.87020297  0.73655427  0.25482670     0.12540
C1753       C  0.93888990  0.68439594  0.98101920    -0.13590
C1754       C  0.91250409  0.68380297  0.99702467     0.08560
C1755       C  0.90314724  0.65705637  0.00893310    -0.13590
C1756       C  0.92088311  0.63221368  0.00721830    -0.13590
C1757       C  0.94820380  0.63314981  0.99281286     0.08560
C1758       C  0.95639172  0.65925850  0.97867958    -0.13590
H1759       H  0.94715750  0.70499736  0.97254984     0.12540
H1760       H  0.88341892  0.65614651  0.02215050     0.12540
H1761       H  0.91312691  0.61222708  0.01740448     0.12540
H1762       H  0.97667052  0.66050737  0.96652041     0.12540
C1763       C  0.92272997  0.72628715  0.11342570    -0.13590
C1764       C  0.93271582  0.73662549  0.08631735     0.08560
C1765       C  0.96361500  0.73917025  0.08261159    -0.13590
C1766       C  0.98369936  0.73219059  0.10541172    -0.13590
C1767       C  0.97357054  0.72199005  0.13264184     0.08560
C1768       C  0.94265343  0.71917168  0.13595907    -0.13590
H1769       H  0.89947430  0.72298441  0.11700978     0.12540
H1770       H  0.97228728  0.74649632  0.06169443     0.12540
H1771       H  0.00687269  0.73638988  0.10229470     0.12540
H1772       H  0.93355290  0.71302126  0.15707564     0.12540
C1773       C  0.96492803  0.53746780  0.12238324    -0.13590
C1774       C  0.93431148  0.53769888  0.11536654     0.08560
C1775       C  0.92741633  0.54273470  0.08565969    -0.13590
C1776       C  0.94916014  0.54731155  0.06425159    -0.13590
C1777       C  0.97982082  0.54657120  0.07035353     0.08560
C1778       C  0.98725975  0.54083771  0.10019120    -0.13590
H1779       H  0.97162450  0.53537133  0.14527044     0.12540
H1780       H  0.90464780  0.54479982  0.07908169     0.12540
H1781       H  0.94134918  0.55035081  0.04197688     0.12540
H1782       H  0.01007746  0.53858871  0.10637307     0.12540
C1783       C  0.89963270  0.61356226  0.20697556    -0.13590
C1784       C  0.89564255  0.61598500  0.17617422     0.08560
C1785       C  0.91113137  0.63732731  0.16071123    -0.13590
C1786       C  0.93508906  0.65072798  0.17417623    -0.13590
C1787       C  0.94167779  0.64530675  0.20400739     0.08560
C1788       C  0.92297286  0.62786565  0.22075228    -0.13590
H1789       H  0.88755212  0.59750387  0.21962661     0.12540
H1790       H  0.90795089  0.63972300  0.13707747     0.12540
H1791       H  0.94916138  0.66436061  0.16086682     0.12540
H1792       H  0.92706076  0.62432129  0.24404524     0.12540
C1793       C  0.64586796  0.86039996  0.27790792    -0.13590
C1794       C  0.65247023  0.83937412  0.25580532     0.08560
C1795       C  0.67593476  0.84489443  0.23667608    -0.13590
C1796       C  0.69413085  0.86938422  0.24135361    -0.13590
C1797       C  0.68897366  0.88928085  0.26491494     0.08560
C1798       C  0.66391708  0.88517272  0.28238868    -0.13590
H1799       H  0.62830008  0.85634411  0.29339153     0.12540
H1800       H  0.68178858  0.82875882  0.21986019     0.12540
H1801       H  0.71234233  0.87264586  0.22648762     0.12540
H1802       H  0.65865937  0.90071916  0.29995325     0.12540
C1803       C  0.67998541  0.79899076  0.37021493    -0.13590
C1804       C  0.71004338  0.79374948  0.37091817     0.08560
C1805       C  0.72441032  0.78400655  0.34532077    -0.13590
C1806       C  0.70807583  0.77469865  0.32074707    -0.13590
C1807       C  0.67742844  0.77643563  0.32141816     0.08560
C1808       C  0.66369691  0.79007458  0.34574052    -0.13590
H1809       H  0.66858703  0.80663993  0.38984992     0.12540
H1810       H  0.74797853  0.78177681  0.34513599     0.12540
H1811       H  0.71918681  0.76623369  0.30131497     0.12540
H1812       H  0.64025329  0.79369054  0.34592566     0.12540
C1813       C  0.69125084  0.95576532  0.37158569    -0.13590
C1814       C  0.69401479  0.97810855  0.39327075     0.08560
C1815       C  0.71935787  0.99596539  0.39336723    -0.13590
C1816       C  0.74067959  0.99238347  0.37145357    -0.13590
C1817       C  0.73697067  0.97125124  0.34864954     0.08560
C1818       C  0.71269113  0.95211270  0.34991782    -0.13590
H1819       H  0.67318439  0.94013634  0.37235824     0.12540
H1820       H  0.72318129  0.01182888  0.41117615     0.12540
H1821       H  0.75945475  0.00703171  0.37164605     0.12540
H1822       H  0.70953591  0.93511937  0.33321853     0.12540
C1823       C  0.68754303  0.88487232  0.45892169    -0.13590
C1824       C  0.69801594  0.91239693  0.46840477     0.08560
C1825       C  0.72842664  0.91503082  0.47531802    -0.13590
C1826       C  0.74781699  0.89123480  0.47123946    -0.13590
C1827       C  0.73733068  0.86397548  0.46045074     0.08560
C1828       C  0.70666784  0.86127558  0.45525585    -0.13590
H1829       H  0.66466134  0.88185588  0.45291392     0.12540
H1830       H  0.73742779  0.93607477  0.48263313     0.12540
H1831       H  0.77062929  0.89384058  0.47761745     0.12540
H1832       H  0.69677913  0.84033231  0.44940342     0.12540
C1833       C  0.65075173  0.98087544  0.00991529    -0.13590
C1834       C  0.65392978  0.95412487  0.02479905     0.08560
C1835       C  0.63534800  0.94862027  0.04878554    -0.13590
C1836       C  0.61317761  0.96836548  0.05648018    -0.13590
C1837       C  0.60804347  0.99362253  0.03976115     0.08560
C1838       C  0.62838154  0.00051335  0.01761755    -0.13590
H1839       H  0.66623380  0.98695415  0.99293397     0.12540
H1840       H  0.63876277  0.92953058  0.06236901     0.12540
H1841       H  0.59866479  0.96278190  0.07434235     0.12540
H1842       H  0.62583473  0.02027460  0.00494609     0.12540
C1843       C  0.71352206  0.93784111  0.11091823    -0.13590
C1844       C  0.72478167  0.95410567  0.08738522     0.08560
C1845       C  0.72927694  0.98463150  0.09136142    -0.13590
C1846       C  0.72407440  0.99824709  0.11873111    -0.13590
C1847       C  0.71451607  0.98143546  0.14251502     0.08560
C1848       C  0.70818619  0.95141580  0.13805113    -0.13590
H1849       H  0.70816466  0.91468615  0.10820081     0.12540
H1850       H  0.73701892  0.99789848  0.07326448     0.12540
H1851       H  0.72991289  0.02124053  0.12194778     0.12540
H1852       H  0.70122181  0.93795334  0.15632970     0.12540
C1853       C  0.49939160  0.90884748  0.15757655    -0.13590
C1854       C  0.51888328  0.88550445  0.15965293     0.08560
C1855       C  0.54024492  0.88139392  0.13775892    -0.13590
C1856       C  0.54430121  0.90248929  0.11609562    -0.13590
C1857       C  0.52682448  0.92773239  0.11602728     0.08560
C1858       C  0.50355451  0.92997914  0.13616391    -0.13590
H1859       H  0.48328792  0.91266330  0.17471387     0.12540
H1860       H  0.55587472  0.86369948  0.13946889     0.12540
H1861       H  0.56166134  0.89951985  0.10009291     0.12540
H1862       H  0.48915458  0.94858301  0.13626108     0.12540
C1863       C  0.61245226  0.89342999  0.21636921    -0.13590
C1864       C  0.58873533  0.90187593  0.23401201     0.08560
C1865       C  0.58898668  0.92967028  0.24785253    -0.13590
C1866       C  0.61306339  0.94855628  0.24450975    -0.13590
C1867       C  0.63666303  0.94040263  0.22635236     0.08560
C1868       C  0.63593606  0.91259335  0.21221465    -0.13590
H1869       H  0.61200050  0.87252261  0.20446163     0.12540
H1870       H  0.57024469  0.93699543  0.26049097     0.12540
H1871       H  0.61342419  0.96926124  0.25647245     0.12540
H1872       H  0.65392296  0.90517419  0.19853315     0.12540
C1873       C  0.77723460  0.84396086  0.66000305    -0.13590
C1874       C  0.76302911  0.87122513  0.66094788     0.08560
C1875       C  0.74385742  0.87812855  0.63767029    -0.13590
C1876       C  0.73801033  0.85783784  0.61469149    -0.13590
C1877       C  0.75156414  0.83017511  0.61405964     0.08560
C1878       C  0.77186633  0.82383233  0.63665545    -0.13590
H1879       H  0.79104519  0.83751815  0.67831887     0.12540
H1880       H  0.73166661  0.89845598  0.63846573     0.12540
H1881       H  0.72295805  0.86397093  0.59728003     0.12540
H1882       H  0.78336316  0.80313795  0.63654234     0.12540
C1883       C  0.68536855  0.85106206  0.74495991    -0.13590
C1884       C  0.68878296  0.87702889  0.72918822     0.08560
C1885       C  0.66760155  0.88468415  0.70809572    -0.13590
C1886       C  0.64410032  0.86576047  0.70168759    -0.13590
C1887       C  0.64133697  0.83898132  0.71648704     0.08560
C1888       C  0.66177084  0.83230538  0.73878767    -0.13590
H1889       H  0.70204381  0.84438604  0.76057705     0.12540
H1890       H  0.67052831  0.90421338  0.69498165     0.12540
H1891       H  0.62817901  0.87206564  0.68514614     0.12540
H1892       H  0.65948142  0.81269573  0.75170959     0.12540
C1893       C  0.64044596  0.83132799  0.53567426    -0.13590
C1894       C  0.61985910  0.82690139  0.51271919     0.08560
C1895       C  0.62003750  0.79933302  0.49775656    -0.13590
C1896       C  0.64093257  0.77771459  0.50459654    -0.13590
C1897       C  0.66261920  0.78287081  0.52643706     0.08560
C1898       C  0.66100678  0.80964542  0.54264366    -0.13590
H1899       H  0.63973979  0.85118440  0.54925520     0.12540
H1900       H  0.60318533  0.79412315  0.48145324     0.12540
H1901       H  0.64119422  0.75755529  0.49153447     0.12540
H1902       H  0.67724287  0.81482602  0.55948260     0.12540
C1903       C  0.56741238  0.84140373  0.60326934    -0.13590
C1904       C  0.55022435  0.83080610  0.57950865     0.08560
C1905       C  0.53996355  0.80141731  0.58031920    -0.13590
C1906       C  0.54678415  0.78326193  0.60417283    -0.13590
C1907       C  0.56318011  0.79423163  0.62837600     0.08560
C1908       C  0.57383651  0.82339383  0.62719397    -0.13590
H1909       H  0.57703488  0.86326986  0.60271496     0.12540
H1910       H  0.52792550  0.79208590  0.56160747     0.12540
H1911       H  0.53786047  0.76112791  0.60441140     0.12540
H1912       H  0.58594807  0.83292472  0.64563005     0.12540
C1913       C  0.30548466  0.64883785  0.82683985    -0.13590
C1914       C  0.29293061  0.65954473  0.80088234     0.08560
C1915       C  0.27489644  0.68432426  0.80236029    -0.13590
C1916       C  0.27055483  0.69896564  0.82939428    -0.13590
C1917       C  0.28489788  0.68948742  0.85510737     0.08560
C1918       C  0.30195687  0.66390552  0.85356329    -0.13590
H1919       H  0.32021738  0.63028871  0.82595706     0.12540
H1920       H  0.26587687  0.69343132  0.78230817     0.12540
H1921       H  0.25643908  0.71791144  0.83000595     0.12540
H1922       H  0.31259045  0.65532883  0.87304984     0.12540
C1923       C  0.40537147  0.67712087  0.76841971    -0.13590
C1924       C  0.38029467  0.68516892  0.75263406     0.08560
C1925       C  0.37662550  0.71549790  0.74705307    -0.13590
C1926       C  0.39830461  0.73667914  0.75510786    -0.13590
C1927       C  0.42421264  0.72834439  0.76955455     0.08560
C1928       C  0.42661294  0.69827742  0.77698647    -0.13590
H1929       H  0.40833096  0.65444469  0.77466587     0.12540
H1930       H  0.35677883  0.72280060  0.73627539     0.12540
H1931       H  0.39568077  0.75917192  0.74816141     0.12540
H1932       H  0.44629901  0.69048653  0.78746569     0.12540
C1933       C  0.41298176  0.71257743  0.95631272    -0.13590
C1934       C  0.41193539  0.68226238  0.94838373     0.08560
C1935       C  0.38684253  0.67181816  0.93340205    -0.13590
C1936       C  0.36324528  0.69064794  0.92777773    -0.13590
C1937       C  0.36361996  0.72059305  0.93708538     0.08560
C1938       C  0.38935604  0.73142970  0.95061178    -0.13590
H1939       H  0.43220454  0.72174688  0.96737835     0.12540
H1940       H  0.38548088  0.64910335  0.92586292     0.12540
H1941       H  0.34358527  0.68104966  0.91809895     0.12540
H1942       H  0.39033070  0.75385551  0.95905000     0.12540
C1943       C  0.51569015  0.69856944  0.90385782    -0.13590
C1944       C  0.50244509  0.67073485  0.90454327     0.08560
C1945       C  0.49143020  0.65762060  0.87839947    -0.13590
C1946       C  0.49099120  0.67328461  0.85244919    -0.13590
C1947       C  0.50280271  0.70184749  0.85188749     0.08560
C1948       C  0.51608933  0.71392814  0.87753526    -0.13590
H1949       H  0.52354193  0.70921653  0.92407343     0.12540
H1950       H  0.48043744  0.63637570  0.87870780     0.12540
H1951       H  0.48152069  0.66286478  0.83282189     0.12540
H1952       H  0.52645861  0.73529366  0.87738731     0.12540
C1953       C  0.27395010  0.59555656  0.88921674    -0.13590
C1954       C  0.26047238  0.59607491  0.86129131     0.08560
C1955       C  0.24149162  0.61902842  0.85440479    -0.13590
C1956       C  0.23362113  0.63940893  0.87613386    -0.13590
C1957       C  0.24541789  0.63777051  0.90486283     0.08560
C1958       C  0.26661551  0.61640201  0.91082375    -0.13590
H1959       H  0.28798001  0.57746014  0.89510379     0.12540
H1960       H  0.23032184  0.61928212  0.83316279     0.12540
H1961       H  0.21811399  0.65630989  0.87042672     0.12540
H1962       H  0.27705722  0.61532153  0.93230132     0.12540
C1963       C  0.18486029  0.50937107  0.88198903    -0.13590
C1964       C  0.18647954  0.52466414  0.85518959     0.08560
C1965       C  0.16305765  0.54320526  0.84798192    -0.13590
C1966       C  0.13921671  0.54698433  0.86727726    -0.13590
C1967       C  0.13799855  0.53238314  0.89455128     0.08560
C1968       C  0.16096337  0.51300168  0.90124517    -0.13590
H1969       H  0.20310509  0.49602073  0.88892877     0.12540
H1970       H  0.16414014  0.55631120  0.82821391     0.12540
H1971       H  0.12168710  0.56144274  0.86077027     0.12540
H1972       H  0.16068108  0.50078343  0.92158756     0.12540
C1973       C  0.13094987  0.69246162  0.91252061    -0.13590
C1974       C  0.11918894  0.71922427  0.90209859     0.08560
C1975       C  0.12835328  0.74524526  0.91605017    -0.13590
C1976       C  0.14865292  0.74472611  0.93934709    -0.13590
C1977       C  0.16022480  0.71819003  0.95063104     0.08560
C1978       C  0.15131663  0.69195733  0.93625693    -0.13590
H1979       H  0.12336496  0.67173503  0.90290965     0.12540
H1980       H  0.11920455  0.76605054  0.90945742     0.12540
H1981       H  0.15668879  0.76581529  0.94705998     0.12540
H1982       H  0.16098262  0.67128263  0.94245275     0.12540
C1983       C  0.05710268  0.63852673  0.89439791    -0.13590
C1984       C  0.04087651  0.66254041  0.90456441     0.08560
C1985       C  0.03188083  0.66281464  0.93449560    -0.13590
C1986       C  0.03846768  0.63931784  0.95332840    -0.13590
C1987       C  0.05442295  0.61506985  0.94279530     0.08560
C1988       C  0.06432058  0.61577157  0.91330492    -0.13590
H1989       H  0.06602733  0.63831092  0.87221036     0.12540
H1990       H  0.02099045  0.68196439  0.94359268     0.12540
H1991       H  0.02992711  0.63948311  0.97563496     0.12540
H1992       H  0.07624688  0.59764430  0.90399039     0.12540
C1993       C  0.81681033  0.74117161  0.63659189    -0.13590
C1994       C  0.84239538  0.72418923  0.63461948     0.08560
C1995       C  0.84382648  0.70291764  0.61174554    -0.13590
C1996       C  0.82095776  0.69953991  0.59099226    -0.13590
C1997       C  0.79617006  0.71772819  0.59182422     0.08560
C1998       C  0.79392117  0.73757046  0.61587997    -0.13590
H1999       H  0.81375845  0.75591912  0.65538879     0.12540
H2000       H  0.86190407  0.68764413  0.61101272     0.12540
H2001       H  0.82309725  0.68305515  0.57375545     0.12540
H2002       H  0.77471648  0.75101645  0.61825425     0.12540
C2003       C  0.84645246  0.63154828  0.70721993    -0.13590
C2004       C  0.83724644  0.65996429  0.71433913     0.08560
C2005       C  0.80679286  0.66372190  0.72008412    -0.13590
C2006       C  0.78628711  0.64014112  0.71728532    -0.13590
C2007       C  0.79555457  0.61185202  0.70899283     0.08560
C2008       C  0.82620339  0.60817894  0.70481660    -0.13590
H2009       H  0.86922393  0.62759823  0.70190263     0.12540
H2010       H  0.79861250  0.68551896  0.72507704     0.12540
H2011       H  0.76348887  0.64385224  0.72257721     0.12540
H2012       H  0.83511718  0.58666034  0.70064039     0.12540
C2013       C  0.87514595  0.61353801  0.52415744    -0.13590
C2014       C  0.86559501  0.59001382  0.50585323     0.08560
C2015       C  0.83810403  0.59097798  0.49212639    -0.13590
C2016       C  0.82121086  0.61616797  0.49507082    -0.13590
C2017       C  0.83159773  0.64044482  0.51206134     0.08560
C2018       C  0.85814480  0.63841534  0.52753041    -0.13590
H2019       H  0.89564871  0.61237505  0.53631940     0.12540
H2020       H  0.82979778  0.57227624  0.47935771     0.12540
H2021       H  0.80073170  0.61725605  0.48287747     0.12540
H2022       H  0.86683638  0.65681554  0.54049735     0.12540
C2023       C  0.85051379  0.50694683  0.58234562    -0.13590
C2024       C  0.87131237  0.52968963  0.58086763     0.08560
C2025       C  0.87097661  0.55264149  0.60197773    -0.13590
C2026       C  0.84987833  0.55297973  0.62420036    -0.13590
C2027       C  0.82884516  0.53022082  0.62575646     0.08560
C2028       C  0.82958542  0.50710960  0.60464322    -0.13590
H2029       H  0.84987294  0.48963779  0.56556328     0.12540
H2030       H  0.88617416  0.57100899  0.60037807     0.12540
H2031       H  0.85049224  0.57070323  0.64053433     0.12540
H2032       H  0.81450224  0.48866673  0.60576042     0.12540
C2033       C  0.76242832  0.68430322  0.81182278    -0.13590
C2034       C  0.74570902  0.68985672  0.83701994     0.08560
C2035       C  0.72779696  0.66764930  0.84864379    -0.13590
C2036       C  0.72530386  0.64057230  0.83414294    -0.13590
C2037       C  0.74107039  0.63531417  0.80809167     0.08560
C2038       C  0.76012103  0.65721913  0.79743198    -0.13590
H2039       H  0.77554038  0.70161985  0.80215781     0.12540
H2040       H  0.71401813  0.67206439  0.86764392     0.12540
H2041       H  0.71123002  0.62378970  0.84339649     0.12540
H2042       H  0.77337640  0.65349580  0.77799473     0.12540
C2043       C  0.64690290  0.73030789  0.81717409    -0.13590
C2044       C  0.67020090  0.74976608  0.81182147     0.08560
C2045       C  0.67342363  0.75949489  0.78235472    -0.13590
C2046       C  0.65282382  0.75169934  0.75978933    -0.13590
C2047       C  0.62860682  0.73326002  0.76557919     0.08560
C2048       C  0.62701781  0.72194147  0.79454854    -0.13590
H2049       H  0.64469929  0.72053381  0.83876349     0.12540
H2050       H  0.69224416  0.77293168  0.77671253     0.12540
H2051       H  0.65505785  0.76129168  0.73816279     0.12540
H2052       H  0.60923094  0.70762392  0.80047415     0.12540
C2053       C  0.60919936  0.53168443  0.78374020    -0.13590
C2054       C  0.60923145  0.54108222  0.81382992     0.08560
C2055       C  0.63340193  0.55780659  0.82388606    -0.13590
C2056       C  0.65703741  0.56390465  0.80496221    -0.13590
C2057       C  0.65766804  0.55347180  0.77522413     0.08560
C2058       C  0.63283769  0.53793445  0.76476285    -0.13590
H2059       H  0.59044580  0.51969015  0.77474321     0.12540
H2060       H  0.63380904  0.56668349  0.84629131     0.12540
H2061       H  0.67593134  0.57521362  0.81435463     0.12540
H2062       H  0.63250406  0.52882569  0.74246448     0.12540
C2063       C  0.54245778  0.61994280  0.83813304    -0.13590
C2064       C  0.52862838  0.59662315  0.82254494     0.08560
C2065       C  0.52069024  0.60019708  0.79282794    -0.13590
C2066       C  0.52947031  0.62533951  0.77809458    -0.13590
C2067       C  0.54507057  0.64789214  0.79318640     0.08560
C2068       C  0.55088443  0.64522145  0.82351787    -0.13590
H2069       H  0.54934413  0.61750297  0.86095511     0.12540
H2070       H  0.51073861  0.58215238  0.78026817     0.12540
H2071       H  0.52441408  0.62687046  0.75477413     0.12540
H2072       H  0.56190840  0.66265299  0.83602862     0.12540
C2073       C  0.68096842  0.46569495  0.87199887    -0.13590
C2074       C  0.68628999  0.48634290  0.89490716     0.08560
C2075       C  0.71435711  0.49982351  0.89613615    -0.13590
C2076       C  0.73592286  0.49336019  0.87483750    -0.13590
C2077       C  0.73002450  0.47389669  0.85102862     0.08560
C2078       C  0.70246839  0.45947399  0.85069898    -0.13590
H2079       H  0.66060304  0.45321910  0.87140628     0.12540
H2080       H  0.72007923  0.51425032  0.91465358     0.12540
H2081       H  0.75687079  0.50461710  0.87624027     0.12540
H2082       H  0.69695667  0.44409182  0.83309766     0.12540
C2083       C  0.71285353  0.42246071  0.98218926    -0.13590
C2084       C  0.68581733  0.42095370  0.96675796     0.08560
C2085       C  0.68199423  0.39816779  0.94567955    -0.13590
C2086       C  0.70406191  0.37747907  0.94049175    -0.13590
C2087       C  0.73067316  0.37815386  0.95663942     0.08560
C2088       C  0.73486109  0.40140346  0.97722285    -0.13590
H2089       H  0.71739760  0.44078999  0.99720126     0.12540
H2090       H  0.66238994  0.39726813  0.93200788     0.12540
H2091       H  0.69934803  0.35952035  0.92514952     0.12540
H2092       H  0.75461456  0.40249696  0.99057898     0.12540
C2093       C  0.64284189  0.36425054  0.78008282    -0.13590
C2094       C  0.64878256  0.34241283  0.75856405     0.08560
C2095       C  0.67344033  0.34587475  0.74047449    -0.13590
C2096       C  0.69227635  0.37002644  0.74445962    -0.13590
C2097       C  0.68681624  0.39159962  0.76645382     0.08560
C2098       C  0.66155181  0.38866355  0.78388751    -0.13590
H2099       H  0.62455798  0.36162506  0.79502871     0.12540
H2100       H  0.67900190  0.32894131  0.72435862     0.12540
H2101       H  0.71091304  0.37199348  0.72987979     0.12540
H2102       H  0.65619193  0.40525918  0.80040861     0.12540
C2103       C  0.69007665  0.25997825  0.82366715    -0.13590
C2104       C  0.66438120  0.27603700  0.82183977     0.08560
C2105       C  0.65940528  0.29972743  0.84151135    -0.13590
C2106       C  0.67932777  0.30632878  0.86399404    -0.13590
C2107       C  0.70398773  0.28872424  0.86748989     0.08560
C2108       C  0.70962998  0.26606989  0.84661274    -0.13590
H2109       H  0.69464803  0.24254956  0.80775115     0.12540
H2110       H  0.64015452  0.31329776  0.83914925     0.12540
H2111       H  0.67406174  0.32338698  0.88008626     0.12540
H2112       H  0.72766425  0.25123822  0.84962736     0.12540
C2113       C  0.70116960  0.16008209  0.96688869    -0.13590
C2114       C  0.72951712  0.16568585  0.97742044     0.08560
C2115       C  0.75260613  0.14807216  0.96677931    -0.13590
C2116       C  0.74823766  0.12811622  0.94329497    -0.13590
C2117       C  0.72044557  0.12496902  0.93053274     0.08560
C2118       C  0.69673373  0.14026375  0.94338523    -0.13590
H2119       H  0.68307993  0.17361756  0.97415553     0.12540
H2120       H  0.77466990  0.15171494  0.97450146     0.12540
H2121       H  0.76662583  0.11585521  0.93462920     0.12540
H2122       H  0.67481510  0.13809682  0.93418497     0.12540
C2123       C  0.62682879  0.07456567  0.88961219    -0.13590
C2124       C  0.65141959  0.05638930  0.88700954     0.08560
C2125       C  0.65297247  0.03092264  0.90378336    -0.13590
C2126       C  0.63297228  0.02639796  0.92634790    -0.13590
C2127       C  0.61025676  0.04659833  0.93161137     0.08560
C2128       C  0.60647854  0.06987081  0.91200082    -0.13590
H2129       H  0.62552923  0.09456234  0.87699548     0.12540
H2130       H  0.67198797  0.01686805  0.90230454     0.12540
H2131       H  0.63579050  0.00732843  0.94008534     0.12540
H2132       H  0.58825320  0.08477086  0.91432909     0.12540
C2133       C  0.60795173  0.23535895  0.88920769    -0.13590
C2134       C  0.60953294  0.20531311  0.88211003     0.08560
C2135       C  0.63432630  0.18923437  0.88954774    -0.13590
C2136       C  0.65505366  0.20187577  0.90838585    -0.13590
C2137       C  0.65097130  0.23052488  0.91963197     0.08560
C2138       C  0.62843220  0.24786777  0.90839106    -0.13590
H2139       H  0.58880751  0.24800059  0.88337017     0.12540
H2140       H  0.63568805  0.16601693  0.88393182     0.12540
H2141       H  0.67360337  0.18889008  0.91498627     0.12540
H2142       H  0.62581527  0.27057688  0.91544572     0.12540
C2143       C  0.55818772  0.13416774  0.95166961    -0.13590
C2144       C  0.53583304  0.14923538  0.93609921     0.08560
C2145       C  0.50728721  0.14746361  0.94757988    -0.13590
C2146       C  0.50117284  0.12947238  0.97191935    -0.13590
C2147       C  0.52345819  0.11325331  0.98593076     0.08560
C2148       C  0.55227048  0.11778819  0.97686921    -0.13590
H2149       H  0.58040365  0.13303057  0.94368232     0.12540
H2150       H  0.48937470  0.15877137  0.93708244     0.12540
H2151       H  0.47848806  0.12591099  0.97795864     0.12540
H2152       H  0.56981356  0.10516236  0.98653068     0.12540
C2153       C  0.46847218  0.88473859  0.65448796    -0.13590
C2154       C  0.48747055  0.90882604  0.65926447     0.08560
C2155       C  0.50057800  0.91209070  0.68754309    -0.13590
C2156       C  0.49609987  0.89096134  0.70958984    -0.13590
C2157       C  0.47842598  0.86590379  0.70412294     0.08560
C2158       C  0.46362406  0.86410527  0.67666579    -0.13590
H2159       H  0.45607042  0.88272411  0.63400069     0.12540
H2160       H  0.51344946  0.93163622  0.69287571     0.12540
H2161       H  0.50752785  0.89354988  0.73051363     0.12540
H2162       H  0.44930618  0.84572980  0.67159652     0.12540
C2163       C  0.41339233  0.99541656  0.67483976    -0.13590
C2164       C  0.41468250  0.97567964  0.65045947     0.08560
C2165       C  0.39371720  0.95273311  0.64923701    -0.13590
C2166       C  0.37191715  0.95011752  0.67098492    -0.13590
C2167       C  0.36969581  0.97059220  0.69460154     0.08560
C2168       C  0.39124691  0.99294232  0.69635114    -0.13590
H2169       H  0.43034810  0.01205644  0.67791130     0.12540
H2170       H  0.39524162  0.93572894  0.63223063     0.12540
H2171       H  0.35610417  0.93242206  0.66872396     0.12540
H2172       H  0.39041642  0.00910586  0.71402515     0.12540
C2173       C  0.37582500  0.78110578  0.61833189    -0.13590
C2174       C  0.35488911  0.76022039  0.62714415     0.08560
C2175       C  0.35825578  0.74641616  0.65436050    -0.13590
C2176       C  0.38198192  0.75374374  0.67270906    -0.13590
C2177       C  0.40256422  0.77533093  0.66444025     0.08560
C2178       C  0.39936338  0.78871216  0.63683546    -0.13590
H2179       H  0.37288977  0.79288227  0.59789056     0.12540
H2180       H  0.34165786  0.73120382  0.66206822     0.12540
H2181       H  0.38436195  0.74221407  0.69322771     0.12540
H2182       H  0.41524698  0.80474324  0.62930717     0.12540
C2183       C  0.27449642  0.83209258  0.65444312    -0.13590
C2184       C  0.28379896  0.82905226  0.62507451     0.08560
C2185       C  0.29783717  0.85273576  0.61133856    -0.13590
C2186       C  0.30284862  0.87901488  0.62692116    -0.13590
C2187       C  0.29386803  0.88194333  0.65648008     0.08560
C2188       C  0.27993264  0.85809440  0.67014928    -0.13590
H2189       H  0.26469216  0.81363442  0.66572838     0.12540
H2190       H  0.30619244  0.85040536  0.58902824     0.12540
H2191       H  0.31297929  0.89724242  0.61557028     0.12540
H2192       H  0.27282689  0.85963135  0.69292158     0.12540
C2193       C  0.13636373  0.91962671  0.67816788    -0.13590
C2194       C  0.11467735  0.92949042  0.69779790     0.08560
C2195       C  0.11597438  0.95946779  0.70691417    -0.13590
C2196       C  0.13752685  0.97885406  0.69629131    -0.13590
C2197       C  0.16036963  0.96850433  0.67848799     0.08560
C2198       C  0.15888289  0.93870947  0.66888883    -0.13590
H2199       H  0.13556025  0.89729436  0.66944781     0.12540
H2200       H  0.09924493  0.96831669  0.72135185     0.12540
H2201       H  0.13789039  0.00140845  0.70439466     0.12540
H2202       H  0.17653047  0.92958955  0.65580945     0.12540
C2203       C  0.05876097  0.92516871  0.61673643    -0.13590
C2204       C  0.04085040  0.93229095  0.64087496     0.08560
C2205       C  0.03086836  0.96163471  0.64313464    -0.13590
C2206       C  0.03813052  0.98276555  0.62176568    -0.13590
C2207       C  0.05485682  0.97516848  0.59691407     0.08560
C2208       C  0.06579894  0.94619685  0.59546404    -0.13590
H2209       H  0.06859917  0.90361735  0.61507817     0.12540
H2210       H  0.01873727  0.96857130  0.66252326     0.12540
H2211       H  0.02940662  0.00473278  0.62380973     0.12540
H2212       H  0.07862446  0.93908528  0.57680344     0.12540
C2213       C  0.24478000  0.88449500  0.57003699    -0.13590
C2214       C  0.26141308  0.89514871  0.54642386     0.08560
C2215       C  0.27524192  0.92270841  0.54909920    -0.13590
C2216       C  0.27059555  0.94029248  0.57414221    -0.13590
C2217       C  0.25185433  0.93070668  0.59669279     0.08560
C2218       C  0.23970074  0.90224773  0.59476441    -0.13590
H2219       H  0.23333380  0.86353833  0.56810013     0.12540
H2220       H  0.28752397  0.93154878  0.53077254     0.12540
H2221       H  0.28140804  0.96148336  0.57565843     0.12540
H2222       H  0.22617290  0.89364625  0.61230495     0.12540
C2223       C  0.17766085  0.92980447  0.47706540    -0.13590
C2224       C  0.18097422  0.90242993  0.49025681     0.08560
C2225       C  0.16152648  0.89400069  0.51262869    -0.13590
C2226       C  0.13902690  0.91267143  0.52163341    -0.13590
C2227       C  0.13553350  0.94015178  0.50837080     0.08560
C2228       C  0.15505039  0.94833497  0.48585530    -0.13590
H2229       H  0.19312561  0.93714604  0.46057997     0.12540
H2230       H  0.16451050  0.87342270  0.52394870     0.12540
H2231       H  0.12399460  0.90530922  0.53849491     0.12540
H2232       H  0.15236860  0.96867603  0.47429692     0.12540
C2233       C  0.85861480  0.28914699  0.65057826    -0.13590
C2234       C  0.84177293  0.28867513  0.67683882     0.08560
C2235       C  0.85482795  0.30001223  0.70308610    -0.13590
C2236       C  0.88386152  0.30952334  0.70337767    -0.13590
C2237       C  0.90089616  0.30644080  0.67806301     0.08560
C2238       C  0.88771392  0.29835437  0.65122822    -0.13590
H2239       H  0.84972748  0.28229295  0.62928769     0.12540
H2240       H  0.84300212  0.30137760  0.72364662     0.12540
H2241       H  0.89398092  0.31671395  0.72398299     0.12540
H2242       H  0.90067351  0.29635380  0.63131487     0.12540
C2243       C  0.77352065  0.35665033  0.72310949    -0.13590
C2244       C  0.78152759  0.35389996  0.69301408     0.08560
C2245       C  0.79661983  0.37727038  0.68008102    -0.13590
C2246       C  0.80258587  0.40299762  0.69628756    -0.13590
C2247       C  0.79376039  0.40636437  0.72600962     0.08560
C2248       C  0.77967548  0.38258167  0.73946772    -0.13590
H2249       H  0.76225912  0.33875551  0.73391106     0.12540
H2250       H  0.80416948  0.37559571  0.65742628     0.12540
H2251       H  0.81238084  0.42107598  0.68465945     0.12540
H2252       H  0.77148989  0.38481276  0.76183604     0.12540
C2253       C  0.99077784  0.40214036  0.71240319    -0.13590
C2254       C  0.98660429  0.37368918  0.70045979     0.08560
C2255       C  0.98842048  0.37033921  0.66918160    -0.13590
C2256       C  0.99411563  0.39375333  0.65060656    -0.13590
C2257       C  0.99709922  0.42218975  0.66207639     0.08560
C2258       C  0.99543577  0.42620908  0.69333925    -0.13590
H2259       H  0.99108366  0.40568779  0.73615794     0.12540
H2260       H  0.98672998  0.34900068  0.65854353     0.12540
H2261       H  0.99406077  0.38982108  0.62685896     0.12540
H2262       H  0.99656120  0.44821823  0.70283525     0.12540
C2263       C  0.91502582  0.50728939  0.64793102    -0.13590
C2264       C  0.91767673  0.48148694  0.63105102     0.08560
C2265       C  0.89666064  0.45894288  0.63332240    -0.13590
C2266       C  0.87531745  0.46065869  0.65509893    -0.13590
C2267       C  0.87479520  0.48506247  0.67452232     0.08560
C2268       C  0.89396375  0.50894038  0.66985354    -0.13590
H2269       H  0.93142347  0.52462326  0.64660434     0.12540
H2270       H  0.89893936  0.43863201  0.62067106     0.12540
H2271       H  0.85993335  0.44254483  0.65733388     0.12540
H2272       H  0.89312551  0.52873514  0.68349179     0.12540
C2273       C  0.92162672  0.25183652  0.57645967    -0.13590
C2274       C  0.93734240  0.24864571  0.54984041     0.08560
C2275       C  0.96820520  0.24978386  0.55098335    -0.13590
C2276       C  0.98267575  0.24989297  0.57831175    -0.13590
C2277       C  0.96634929  0.24873075  0.60444176     0.08560
C2278       C  0.93590933  0.25033698  0.60326564    -0.13590
H2279       H  0.89792325  0.25193804  0.57705355     0.12540
H2280       H  0.98092236  0.24763009  0.53090677     0.12540
H2281       H  0.00627739  0.24946029  0.57884544     0.12540
H2282       H  0.92303904  0.25079187  0.62335480     0.12540
C2283       C  0.94699547  0.14109488  0.56192890    -0.13590
C2284       C  0.93538460  0.15210991  0.53509776     0.08560
C2285       C  0.94770127  0.14158036  0.50880734    -0.13590
C2286       C  0.97032805  0.12124637  0.50881153    -0.13590
C2287       C  0.98224811  0.10933613  0.53502294     0.08560
C2288       C  0.96953464  0.11932612  0.56185938    -0.13590
H2289       H  0.93887250  0.14946548  0.58286835     0.12540
H2290       H  0.94019855  0.14988019  0.48775057     0.12540
H2291       H  0.97656347  0.11300020  0.48737021     0.12540
H2292       H  0.97624081  0.10974263  0.58256026     0.12540
C2293       C  0.98752529  0.12269105  0.71550813    -0.13590
C2294       C  0.95768265  0.12347941  0.70707561     0.08560
C2295       C  0.94897382  0.14505125  0.68721834    -0.13590
C2296       C  0.96886046  0.16670247  0.67813106    -0.13590
C2297       C  0.99768799  0.16835571  0.68969940     0.08560
C2298       C  0.00726394  0.14498532  0.70709075    -0.13590
H2299       H  0.99531846  0.10526639  0.72947052     0.12540
H2300       H  0.92667051  0.14530885  0.67885900     0.12540
H2301       H  0.96053097  0.18429763  0.66479371     0.12540
H2302       H  0.02907336  0.14555444  0.71670981     0.12540
C2303       C  0.95244684  0.01426428  0.66877174    -0.13590
C2304       C  0.92883049  0.03297473  0.67316905     0.08560
C2305       C  0.91493065  0.04591721  0.64884257    -0.13590
C2306       C  0.92699197  0.04332217  0.62088755    -0.13590
C2307       C  0.95241280  0.02682989  0.61682377     0.08560
C2308       C  0.96376442  0.01075289  0.64053061    -0.13590
H2309       H  0.96343184  0.00435408  0.68738070     0.12540
H2310       H  0.89676953  0.06081363  0.65202784     0.12540
H2311       H  0.91687772  0.05482844  0.60274026     0.12540
H2312       H  0.98179824  0.99603461  0.63746700     0.12540
C2313       C  0.04988979  0.84719970  0.08175749    -0.13590
C2314       C  0.02734405  0.84562387  0.06053118     0.08560
C2315       C  0.00426905  0.82563949  0.06336412    -0.13590
C2316       C  0.00286028  0.80837533  0.08835316    -0.13590
C2317       C  0.02499023  0.81035623  0.11022587     0.08560
C2318       C  0.04888506  0.82946007  0.10638424    -0.13590
H2319       H  0.06846928  0.86192561  0.07894040     0.12540
H2320       H  0.98736485  0.82367057  0.04648014     0.12540
H2321       H  0.98369307  0.79463211  0.09123208     0.12540
H2322       H  0.06593363  0.83187427  0.12308248     0.12540
C2323       C  0.14472328  0.84394981  0.01585543    -0.13590
C2324       C  0.14642262  0.81423534  0.00739107     0.08560
C2325       C  0.12301597  0.80088264  0.99170521    -0.13590
C2326       C  0.09864839  0.81719614  0.98392845    -0.13590
C2327       C  0.09682540  0.84680350  0.99278571     0.08560
C2328       C  0.12023433  0.86007744  0.00855332    -0.13590
H2329       H  0.16263337  0.85504372  0.02746007     0.12540
H2330       H  0.12363106  0.77792479  0.98516553     0.12540
H2331       H  0.08043986  0.80632308  0.97260155     0.12540
H2332       H  0.11902724  0.88259194  0.01666620     0.12540
C2333       C  0.22189413  0.90799658  0.20754001    -0.13520
C2334       C  0.22745560  0.93306544  0.21729848    -0.15080
C2335       C  0.13320244  0.82801477  0.19433050    -0.13590
C2336       C  0.15836202  0.81576564  0.20664870     0.08560
C2337       C  0.15775067  0.78563139  0.21391865    -0.13590
C2338       C  0.13229457  0.76841740  0.20964353    -0.13590
C2339       C  0.10702721  0.78099623  0.19783208     0.08560
C2340       C  0.10805211  0.81083841  0.18975065    -0.13590
H2341       H  0.13331870  0.85064417  0.18720000     0.12540
H2342       H  0.17729202  0.77533077  0.22245528     0.12540
H2343       H  0.13185320  0.74592829  0.21714402     0.12540
H2344       H  0.08860142  0.82146303  0.18142980     0.12540
C2345       C  0.24294242  0.78705543  0.13876206    -0.13590
C2346       C  0.23405706  0.81691173  0.13894295     0.08560
C2347       C  0.22239184  0.82784528  0.11277191    -0.13590
C2348       C  0.21898439  0.80967445  0.08766403    -0.13590
C2349       C  0.22714227  0.77970046  0.08721203     0.08560
C2350       C  0.23968276  0.76878709  0.11324578    -0.13590
H2351       H  0.25133996  0.77755844  0.15889012     0.12540
H2352       H  0.21442126  0.85019809  0.11212096     0.12540
H2353       H  0.21103922  0.81991966  0.06804591     0.12540
H2354       H  0.24802157  0.74658572  0.11354674     0.12540
C2355       C  0.17343279  0.95326402  0.27742614    -0.13520
C2356       C  0.19677810  0.96251660  0.26772534    -0.15080
C2357       C  0.07833152  0.98682896  0.35758380    -0.13590
C2358       C  0.09305642  0.96033922  0.35457957     0.08560
C2359       C  0.08384286  0.93633272  0.37187724    -0.13590
C2360       C  0.05965996  0.93867257  0.39087792    -0.13590
C2361       C  0.04429402  0.96514014  0.39327546     0.08560
C2362       C  0.05462738  0.98916838  0.37666956    -0.13590
H2363       H  0.08423133  0.00535693  0.34398675     0.12540
H2364       H  0.09416665  0.91512319  0.36902886     0.12540
H2365       H  0.05386470  0.92029494  0.40468510     0.12540
H2366       H  0.04612971  0.01080483  0.38009085     0.12540
C2367       C  0.06221822  0.89510556  0.24806940    -0.13590
C2368       C  0.07481953  0.89758560  0.27617391     0.08560
C2369       C  0.06161817  0.88210382  0.29968400    -0.13590
C2370       C  0.03626112  0.86509470  0.29531775    -0.13590
C2371       C  0.02490678  0.86069767  0.26683406     0.08560
C2372       C  0.03786815  0.87654849  0.24341238    -0.13590
H2373       H  0.07112844  0.90742228  0.22983164     0.12540
H2374       H  0.07051904  0.88410792  0.32193936     0.12540
H2375       H  0.02744770  0.85293562  0.31371212     0.12540
H2376       H  0.03072960  0.87291132  0.22089200     0.12540
C2377       C  0.09500254  0.84163209  0.49963681    -0.13590
C2378       C  0.11747895  0.83559712  0.47947410     0.08560
C2379       C  0.12465244  0.85671741  0.45822677    -0.13590
C2380       C  0.10764895  0.88188449  0.45518960    -0.13590
C2381       C  0.08324775  0.88639920  0.47344807     0.08560
C2382       C  0.07791326  0.86664604  0.49649808    -0.13590
H2383       H  0.08866689  0.82540408  0.51573109     0.12540
H2384       H  0.14143777  0.85223091  0.44193494     0.12540
H2385       H  0.11309257  0.89735932  0.43805731     0.12540
H2386       H  0.06030291  0.87033696  0.51201643     0.12540
C2387       C  0.05685896  0.77719138  0.40328365    -0.13590
C2388       C  0.08690066  0.78336064  0.40495672     0.08560
C2389       C  0.10001069  0.80181964  0.38410716    -0.13590
C2390       C  0.08435842  0.81016014  0.35931864    -0.13590
C2391       C  0.05600470  0.79902901  0.35490904     0.08560
C2392       C  0.04120303  0.78556760  0.37834945    -0.13590
H2393       H  0.04605568  0.76475878  0.42038273     0.12540
H2394       H  0.12274277  0.80870103  0.38644198     0.12540
H2395       H  0.09591774  0.82112041  0.34166843     0.12540
H2396       H  0.01881239  0.77787773  0.37547555     0.12540
C2397       C  0.36285647  0.09499856  0.95147057    -0.13590
C2398       C  0.33470809  0.09167493  0.96299446     0.08560
C2399       C  0.32842710  0.06902041  0.98267250    -0.13590
C2400       C  0.35045796  0.04943965  0.99040045    -0.13590
C2401       C  0.37802348  0.05159357  0.97696812     0.08560
C2402       C  0.38400914  0.07456804  0.95757180    -0.13590
H2403       H  0.36766527  0.11194915  0.93555221     0.12540
H2404       H  0.30636247  0.06573893  0.99076908     0.12540
H2405       H  0.34583284  0.03229256  0.00602525     0.12540
H2406       H  0.40547091  0.07746983  0.94784118     0.12540
C2407       C  0.31980891  0.06638602  0.85821807    -0.13590
C2408       C  0.29476866  0.08247603  0.86733841     0.08560
C2409       C  0.26757778  0.07340599  0.85618042    -0.13590
C2410       C  0.26538723  0.04969165  0.83610579    -0.13590
C2411       C  0.29022636  0.03380045  0.82600743     0.08560
C2412       C  0.31763133  0.04258915  0.83757878    -0.13590
H2413       H  0.34112907  0.07214606  0.86741682     0.12540
H2414       H  0.24781136  0.08432713  0.86345004     0.12540
H2415       H  0.24392478  0.04521663  0.82693254     0.12540
H2416       H  0.33734196  0.03202281  0.82978456     0.12540
C2417       C  0.46714676  0.07065835  0.87247962    -0.13590
C2418       C  0.48649284  0.06004635  0.85090565     0.08560
C2419       C  0.49563239  0.03043277  0.85299033    -0.13590
C2420       C  0.48636821  0.01238468  0.87619059    -0.13590
C2421       C  0.46835084  0.02359184  0.89859478     0.08560
C2422       C  0.45818923  0.05272089  0.89580667    -0.13590
H2423       H  0.45858054  0.09272257  0.87113319     0.12540
H2424       H  0.51010181  0.02112993  0.83645875     0.12540
H2425       H  0.49548236  0.99058937  0.87803150     0.12540
H2426       H  0.44500721  0.06244319  0.91319026     0.12540
C2427       C  0.43191814  0.06831901  0.73670057    -0.13590
C2428       C  0.44193956  0.06504986  0.76554789     0.08560
C2429       C  0.42185376  0.05884624  0.78845777    -0.13590
C2430       C  0.39212575  0.05567340  0.78236990    -0.13590
C2431       C  0.38227781  0.05888891  0.75343642     0.08560
C2432       C  0.40229523  0.06577395  0.73077646    -0.13590
H2433       H  0.44685687  0.07395156  0.71907799     0.12540
H2434       H  0.42896010  0.05752407  0.81131107     0.12540
H2435       H  0.37706153  0.05060850  0.80001968     0.12540
H2436       H  0.39506568  0.06894272  0.70817057     0.12540
C2437       C  0.91188186  0.28580817  0.02005760    -0.13590
C2438       C  0.91277757  0.28896245  0.05134718     0.08560
C2439       C  0.88816208  0.30024143  0.06565638    -0.13590
C2440       C  0.86338825  0.30768804  0.04944785    -0.13590
C2441       C  0.86227158  0.30462087  0.01825127     0.08560
C2442       C  0.88695096  0.29371132  0.00365948    -0.13590
H2443       H  0.93052163  0.27705285  0.00822508     0.12540
H2444       H  0.88808121  0.30371625  0.08943729     0.12540
H2445       H  0.84406720  0.31393301  0.06176159     0.12540
H2446       H  0.88622749  0.28930875  0.98002960     0.12540
C2447       C  0.98274278  0.36422039  0.07346178    -0.13590
C2448       C  0.99858719  0.33979239  0.06337408     0.08560
C2449       C  0.01472357  0.34133570  0.03729721    -0.13590
C2450       C  0.01380148  0.36668599  0.02066130    -0.13590
C2451       C  0.99623655  0.39042509  0.02947784     0.08560
C2452       C  0.98112809  0.38916233  0.05639478    -0.13590
H2453       H  0.96943814  0.36295792  0.09321893     0.12540
H2454       H  0.02630449  0.32229261  0.02888538     0.12540
H2455       H  0.02689345  0.36774368  0.00101541     0.12540
H2456       H  0.96829087  0.40750498  0.06448531     0.12540
C2457       C  0.79468972  0.40533925  0.10479094    -0.13590
C2458       C  0.82546915  0.40183126  0.10530144     0.08560
C2459       C  0.83811839  0.38129193  0.08612114    -0.13590
C2460       C  0.82224967  0.37174544  0.06161816    -0.13590
C2461       C  0.79239965  0.37865355  0.05862170     0.08560
C2462       C  0.77838975  0.39442753  0.08100596    -0.13590
H2463       H  0.78378572  0.42018118  0.12004328     0.12540
H2464       H  0.86153206  0.37746668  0.08669524     0.12540
H2465       H  0.83362551  0.35967481  0.04446330     0.12540
H2466       H  0.75527871  0.39931943  0.07951129     0.12540
C2467       C  0.86624687  0.47873177  0.02651111    -0.13590
C2468       C  0.87551131  0.47952646  0.05681832     0.08560
C2469       C  0.90566432  0.47675126  0.06157484    -0.13590
C2470       C  0.92542056  0.47291760  0.03825474    -0.13590
C2471       C  0.91726477  0.47293279  0.00777415     0.08560
C2472       C  0.88684491  0.47669505  0.00238470    -0.13590
H2473       H  0.84303351  0.47920576  0.02145552     0.12540
H2474       H  0.91405556  0.47574599  0.08403923     0.12540
H2475       H  0.94808828  0.47156054  0.04475562     0.12540
H2476       H  0.87898047  0.47840741  0.97983524     0.12540
C2477       C  0.88666372  0.03502697  0.46422570    -0.13590
C2478       C  0.91502140  0.04389155  0.45592676     0.08560
C2479       C  0.91992014  0.07484044  0.45448380    -0.13590
C2480       C  0.89849100  0.09572842  0.46172472    -0.13590
C2481       C  0.87053367  0.08709168  0.47072583     0.08560
C2482       C  0.86480824  0.05619755  0.47130065    -0.13590
H2483       H  0.88168796  0.01184958  0.46617003     0.12540
H2484       H  0.94135707  0.08345329  0.44961894     0.12540
H2485       H  0.90355902  0.11886731  0.45920693     0.12540
H2486       H  0.84296648  0.04842638  0.47655593     0.12540
C2487       C  0.77140363  0.09803756  0.40501952    -0.13590
C2488       C  0.79466615  0.11809385  0.40612776     0.08560
C2489       C  0.81355800  0.12132172  0.38215570    -0.13590
C2490       C  0.81170207  0.10154057  0.35873427    -0.13590
C2491       C  0.79006447  0.07937870  0.35869579     0.08560
C2492       C  0.76918315  0.07849318  0.38136422    -0.13590
H2493       H  0.75709494  0.09537543  0.42385644     0.12540
H2494       H  0.83197616  0.13658589  0.38339089     0.12540
H2495       H  0.82735593  0.10338414  0.34087944     0.12540
H2496       H  0.75128863  0.06266952  0.38095863     0.12540
C2497       C  0.98883893  0.11219954  0.34525764    -0.13590
C2498       C  0.99924307  0.09696974  0.32030267     0.08560
C2499       C  0.00981688  0.06833909  0.32316033    -0.13590
C2500       C  0.00644841  0.05386515  0.34978385    -0.13590
C2501       C  0.99386535  0.06834695  0.37423765     0.08560
C2502       C  0.98573286  0.09787462  0.37189722    -0.13590
H2503       H  0.97986431  0.13406274  0.34330793     0.12540
H2504       H  0.01693367  0.05598569  0.30381751     0.12540
H2505       H  0.01272058  0.03108567  0.35079284     0.12540
H2506       H  0.97676804  0.10994904  0.39057748     0.12540
C2507       C  0.87716219  0.04614932  0.29975718    -0.13590
C2508       C  0.86232576  0.03921905  0.27336091     0.08560
C2509       C  0.87129654  0.05362705  0.24721163    -0.13590
C2510       C  0.89420232  0.07393079  0.24705797    -0.13590
C2511       C  0.90910217  0.08076750  0.27313337     0.08560
C2512       C  0.90045624  0.06672000  0.29961073    -0.13590
H2513       H  0.86997052  0.03690317  0.32044584     0.12540
H2514       H  0.85984520  0.05010207  0.22647492     0.12540
H2515       H  0.90057635  0.08388680  0.22641313     0.12540
H2516       H  0.91178841  0.07179305  0.32024460     0.12540
C2517       C  0.10157487  0.51445372  0.79367310    -0.13590
C2518       C  0.12803708  0.49869490  0.79280045     0.08560
C2519       C  0.13455019  0.48074318  0.81698151    -0.13590
C2520       C  0.11516516  0.47826175  0.84096586    -0.13590
C2521       C  0.08846478  0.49372530  0.84176141     0.08560
C2522       C  0.08231302  0.51232469  0.81789626    -0.13590
H2523       H  0.09512449  0.52735730  0.77484008     0.12540
H2524       H  0.15397881  0.46723641  0.81652161     0.12540
H2525       H  0.12131965  0.46428492  0.85909988     0.12540
H2526       H  0.06250297  0.52520130  0.81784585     0.12540
C2527       C  0.13788115  0.40384501  0.74453841    -0.13590
C2528       C  0.12801171  0.42369211  0.72332516     0.08560
C2529       C  0.09969619  0.42089800  0.71157771    -0.13590
C2530       C  0.08015758  0.40105176  0.72385438    -0.13590
C2531       C  0.08898731  0.38356907  0.74764328     0.08560
C2532       C  0.11827504  0.38429794  0.75714367    -0.13590
H2533       H  0.15968659  0.40607497  0.75404932     0.12540
H2534       H  0.09173859  0.43648870  0.69562259     0.12540
H2535       H  0.05791243  0.40008934  0.71535359     0.12540
H2536       H  0.12591357  0.37014255  0.77456048     0.12540
C2537       C  0.05574298  0.36009857  0.94890393    -0.13590
C2538       C  0.08551422  0.35929127  0.93968173     0.08560
C2539       C  0.09523434  0.38322941  0.92293361    -0.13590
C2540       C  0.07637418  0.40694534  0.91656281    -0.13590
C2541       C  0.04665821  0.40768710  0.92594239     0.08560
C2542       C  0.03664139  0.38321500  0.94153901    -0.13590
H2543       H  0.04684346  0.34230605  0.96176734     0.12540
H2544       H  0.11735257  0.38350452  0.91437243     0.12540
H2545       H  0.08564935  0.42571130  0.90547285     0.12540
H2546       H  0.01449821  0.38288794  0.95001438     0.12540
C2547       C  0.05187647  0.27507405  0.88285049    -0.13590
C2548       C  0.08041322  0.28718380  0.88388295     0.08560
C2549       C  0.08703957  0.31007874  0.86452600    -0.13590
C2550       C  0.06634085  0.31964267  0.84407092    -0.13590
C2551       C  0.03921055  0.30507350  0.84035041     0.08560
C2552       C  0.03160077  0.28371674  0.86114519    -0.13590
H2553       H  0.04513377  0.25964806  0.89953084     0.12540
H2554       H  0.10775025  0.32187256  0.86649873     0.12540
H2555       H  0.07266637  0.33695596  0.82939168     0.12540
H2556       H  0.01064390  0.27243129  0.85942966     0.12540
C2557       C  0.86452182  0.02475606  0.09314607    -0.13590
C2558       C  0.85148229  0.01086144  0.06835485     0.08560
C2559       C  0.82316412  0.99906615  0.07020850    -0.13590
C2560       C  0.80728950  0.00321955  0.09609228    -0.13590
C2561       C  0.81920124  0.02011630  0.11964715     0.08560
C2562       C  0.84814429  0.03047016  0.11804070    -0.13590
H2563       H  0.88623387  0.03459701  0.09190500     0.12540
H2564       H  0.81265521  0.98890925  0.05099313     0.12540
H2565       H  0.78573204  0.99355737  0.09755719     0.12540
H2566       H  0.85851036  0.04255326  0.13622387     0.12540
C2567       C  0.84293525  0.11557663  0.05385219    -0.13590
C2568       C  0.85140618  0.10130181  0.02738847     0.08560
C2569       C  0.84590507  0.11362813  0.00021733    -0.13590
C2570       C  0.83191926  0.14014811  0.99909809    -0.13590
C2571       C  0.82334374  0.15531119  0.02526698     0.08560
C2572       C  0.82914980  0.14294942  0.05282882    -0.13590
H2573       H  0.84723691  0.10564269  0.07504638     0.12540
H2574       H  0.85235280  0.10262163  0.97981521     0.12540
H2575       H  0.82861625  0.14900772  0.97725343     0.12540
H2576       H  0.82320101  0.15429110  0.07315804     0.12540
C2577       C  0.83615988  0.12950623  0.18585934    -0.13590
C2578       C  0.83063946  0.15379058  0.20448589     0.08560
C2579       C  0.80286681  0.15510330  0.21818924    -0.13590
C2580       C  0.78147827  0.13299309  0.21339380    -0.13590
C2581       C  0.78751920  0.10795591  0.19599559     0.08560
C2582       C  0.81501796  0.10706927  0.18172091    -0.13590
H2583       H  0.85643163  0.12843100  0.17353308     0.12540
H2584       H  0.79713439  0.17435294  0.23129541     0.12540
H2585       H  0.76073022  0.13469271  0.22471320     0.12540
H2586       H  0.82089731  0.08805496  0.16849951     0.12540
C2587       C  0.81089457  0.20867765  0.12436878    -0.13590
C2588       C  0.82513279  0.23111140  0.14130996     0.08560
C2589       C  0.81572632  0.26001203  0.13877730    -0.13590
C2590       C  0.79338720  0.26648322  0.11868938    -0.13590
C2591       C  0.77947615  0.24414275  0.10129102     0.08560
C2592       C  0.78782148  0.21502552  0.10519507    -0.13590
H2593       H  0.81739069  0.18594480  0.12655020     0.12540
H2594       H  0.82563859  0.27745455  0.15217926     0.12540
H2595       H  0.78866890  0.28936903  0.11494990     0.12540
H2596       H  0.77852322  0.19756222  0.09135018     0.12540
C2597       C  0.52118159  0.82973145  0.06681742    -0.13590
C2598       C  0.50471436  0.82314851  0.09184416     0.08560
C2599       C  0.48352548  0.84298818  0.10206765    -0.13590
C2600       C  0.47844337  0.86892981  0.08706781    -0.13590
C2601       C  0.49481415  0.87562621  0.06182085     0.08560
C2602       C  0.51649499  0.85589421  0.05213109    -0.13590
H2603       H  0.53680660  0.81410099  0.05805124     0.12540
H2604       H  0.46979696  0.83758344  0.12073970     0.12540
H2605       H  0.46219240  0.88399044  0.09564542     0.12540
H2606       H  0.53034740  0.86090659  0.03357240     0.12540
C2607       C  0.43401367  0.73995023  0.05129361    -0.13590
C2608       C  0.43702866  0.75260137  0.07962161     0.08560
C2609       C  0.41543097  0.77179888  0.09019709    -0.13590
C2610       C  0.39116610  0.77831468  0.07274723    -0.13590
C2611       C  0.38775300  0.76540032  0.04444332     0.08560
C2612       C  0.40937764  0.74598632  0.03403459    -0.13590
H2613       H  0.45110172  0.72612004  0.04228657     0.12540
H2614       H  0.41807773  0.78283000  0.11152264     0.12540
H2615       H  0.37469876  0.79285167  0.08181077     0.12540
H2616       H  0.40695158  0.73493748  0.01284102     0.12540
C2617       C  0.28245415  0.95692514  0.16063097    -0.13520
C2618       C  0.27273661  0.96573495  0.18512153    -0.15080
C2619       C  0.35446714  0.97703785  0.04364969    -0.13590
C2620       C  0.35420528  0.96518575  0.07243249     0.08560
C2621       C  0.37758192  0.94693617  0.08017853    -0.13590
C2622       C  0.40037946  0.94108513  0.06015885    -0.13590
C2623       C  0.40084131  0.95323156  0.03153350     0.08560
C2624       C  0.37676520  0.97026901  0.02327732    -0.13590
H2625       H  0.33592391  0.98965900  0.03615663     0.12540
H2626       H  0.37752917  0.93602984  0.10130717     0.12540
H2627       H  0.41893188  0.92859464  0.06785308     0.12540
H2628       H  0.37614023  0.98001916  0.00161348     0.12540
C2629       C  0.27933142  0.89628938  0.03245777    -0.13590
C2630       C  0.28824688  0.89355702  0.06241797     0.08560
C2631       C  0.30697961  0.87013472  0.06868311    -0.13590
C2632       C  0.31554600  0.84998068  0.04632989    -0.13590
C2633       C  0.30567076  0.85194455  0.01657609     0.08560
C2634       C  0.28835305  0.87633245  0.00998536    -0.13590
H2635       H  0.26693818  0.91540160  0.02618142     0.12540
H2636       H  0.31610942  0.86811079  0.09073702     0.12540
H2637       H  0.32854151  0.83148104  0.05290439     0.12540
H2638       H  0.28044746  0.87906685  0.98759286     0.12540
C2639       C  0.13583651  0.03396586  0.83905010    -0.13590
C2640       C  0.10877742  0.01929596  0.83687040     0.08560
C2641       C  0.10314689  0.99957440  0.81331782    -0.13590
C2642       C  0.12271945  0.99779985  0.78992425    -0.13590
C2643       C  0.14781451  0.01583149  0.79011160     0.08560
C2644       C  0.15504529  0.03271280  0.81546489    -0.13590
H2645       H  0.14033619  0.04926122  0.85722083     0.12540
H2646       H  0.08217604  0.98827994  0.81134402     0.12540
H2647       H  0.11750556  0.98360180  0.77111753     0.12540
H2648       H  0.17517136  0.04553149  0.81677731     0.12540
C2649       C  0.06659251  0.12582107  0.83471673    -0.13590
C2650       C  0.04560417  0.10309331  0.83270034     0.08560
C2651       C  0.02307907  0.10432650  0.81169739    -0.13590
C2652       C  0.02204087  0.12764089  0.79225864    -0.13590
C2653       C  0.04358682  0.15003998  0.79345560     0.08560
C2654       C  0.06572337  0.14902900  0.81512938    -0.13590
H2655       H  0.08430953  0.12493461  0.85075932     0.12540
H2656       H  0.00704775  0.08666212  0.80952042     0.12540
H2657       H  0.00388657  0.12847026  0.77682354     0.12540
H2658       H  0.08194149  0.16649379  0.81747008     0.12540
C2659       C  0.23321886  0.15521739  0.75699427    -0.13590
C2660       C  0.22805565  0.15381687  0.78804081     0.08560
C2661       C  0.21852968  0.12668716  0.79881262    -0.13590
C2662       C  0.21513646  0.10208353  0.77957492    -0.13590
C2663       C  0.22082237  0.10343042  0.74864693     0.08560
C2664       C  0.22916822  0.13073216  0.73764593    -0.13590
H2665       H  0.24073088  0.17561187  0.74743685     0.12540
H2666       H  0.21332683  0.12451053  0.82203588     0.12540
H2667       H  0.20963048  0.08123699  0.78939481     0.12540
H2668       H  0.23501995  0.13263794  0.71455364     0.12540
C2669       C  0.14728565  0.23327397  0.80652885    -0.13590
C2670       C  0.17374656  0.24047036  0.79299268     0.08560
C2671       C  0.17376522  0.24717137  0.76253290    -0.13590
C2672       C  0.14789761  0.24494368  0.74567924    -0.13590
C2673       C  0.12177232  0.23640722  0.75924316     0.08560
C2674       C  0.12182564  0.23084751  0.78983410    -0.13590
H2675       H  0.14665290  0.22714120  0.82960075     0.12540
H2676       H  0.19420171  0.25210824  0.75148788     0.12540
H2677       H  0.14808824  0.25083264  0.72255167     0.12540
H2678       H  0.10171737  0.22555929  0.80125930     0.12540
C2679       C  0.74063185  0.31169323  0.16171150    -0.13590
C2680       C  0.74186129  0.34154126  0.17043189     0.08560
C2681       C  0.73588709  0.36305161  0.14903322    -0.13590
C2682       C  0.72608758  0.35502876  0.12114410    -0.13590
C2683       C  0.72549451  0.32561714  0.11256133     0.08560
C2684       C  0.73235160  0.30382003  0.13290356    -0.13590
H2685       H  0.74480185  0.29459475  0.17754662     0.12540
H2686       H  0.73702233  0.38635259  0.15393600     0.12540
H2687       H  0.72159747  0.37201080  0.10528098     0.12540
H2688       H  0.73278854  0.28091643  0.12597623     0.12540
C2689       C  0.64864372  0.32127262  0.22882059    -0.13590
C2690       C  0.65923227  0.33487360  0.20352747     0.08560
C2691       C  0.65016452  0.32248668  0.17576311    -0.13590
C2692       C  0.62997255  0.29816986  0.17380866    -0.13590
C2693       C  0.61969146  0.28431743  0.19960612     0.08560
C2694       C  0.62979229  0.29685894  0.22689357    -0.13590
H2695       H  0.65577353  0.32909924  0.25051973     0.12540
H2696       H  0.65901486  0.33138928  0.15557308     0.12540
H2697       H  0.62182201  0.29090707  0.15231690     0.12540
H2698       H  0.62128940  0.28926404  0.24757063     0.12540
C2699       C  0.62410623  0.34031180  0.03553585    -0.13590
C2700       C  0.60546741  0.33868764  0.01065542     0.08560
C2701       C  0.60764245  0.31365887  0.99195874    -0.13590
C2702       C  0.62905856  0.29211632  0.99686691    -0.13590
C2703       C  0.64898828  0.29457456  0.02076324     0.08560
C2704       C  0.64530762  0.31860458  0.04056059    -0.13590
H2705       H  0.62176407  0.35809642  0.05158512     0.12540
H2706       H  0.59240583  0.31060738  0.97365272     0.12540
H2707       H  0.63107215  0.27427502  0.98090905     0.12540
H2708       H  0.66002141  0.32167605  0.05917591     0.12540
C2709       C  0.53384310  0.36085486  0.08776763    -0.13590
C2710       C  0.52238191  0.34564587  0.06282243     0.08560
C2711       C  0.51462170  0.31590366  0.06502388    -0.13590
C2712       C  0.52162567  0.30078840  0.09051944    -0.13590
C2713       C  0.53579065  0.31540795  0.11441378     0.08560
C2714       C  0.54080698  0.34577443  0.11324717    -0.13590
H2715       H  0.54030446  0.38379902  0.08658199     0.12540
H2716       H  0.50606828  0.30378017  0.04594178     0.12540
H2717       H  0.51636267  0.27753427  0.09132416     0.12540
H2718       H  0.55025733  0.35786554  0.13191253     0.12540
C2719       C  0.32909657  0.75171761  0.12080761    -0.13590
C2720       C  0.33464801  0.72980662  0.09924047     0.08560
C2721       C  0.36070999  0.71377712  0.10093156    -0.13590
C2722       C  0.37960840  0.71788158  0.12494328    -0.13590
C2723       C  0.37250648  0.73767757  0.14795351     0.08560
C2724       C  0.34808906  0.75587054  0.14480015    -0.13590
H2725       H  0.30989496  0.76545281  0.11937619     0.12540
H2726       H  0.36627402  0.69768206  0.08397395     0.12540
H2727       H  0.39811371  0.70329262  0.12705039     0.12540
H2728       H  0.34200437  0.77090798  0.16253288     0.12540
C2729       C  0.33924866  0.64997784  0.18195166    -0.13590
C2730       C  0.34373152  0.66637852  0.20822832     0.08560
C2731       C  0.32679473  0.66114476  0.23305241    -0.13590
C2732       C  0.30712172  0.63769813  0.23250115    -0.13590
C2733       C  0.30445429  0.61920472  0.20712565     0.08560
C2734       C  0.31958556  0.62645285  0.18133789    -0.13590
H2735       H  0.35197540  0.65466780  0.16236353     0.12540
H2736       H  0.32973797  0.67428822  0.25310293     0.12540
H2737       H  0.29609742  0.63256114  0.25294288     0.12540
H2738       H  0.31812307  0.61261491  0.16160600     0.12540
C2739       C  0.33645577  0.62735260  0.03560699    -0.13590
C2740       C  0.33565059  0.60609199  0.01259834     0.08560
C2741       C  0.31066802  0.60516536  0.99412211    -0.13590
C2742       C  0.28773147  0.62520633  0.99810778    -0.13590
C2743       C  0.28921995  0.64750865  0.02002825     0.08560
C2744       C  0.31353310  0.64748288  0.03937521    -0.13590
H2745       H  0.35409832  0.62727674  0.05177858     0.12540
H2746       H  0.30811516  0.58767232  0.97769394     0.12540
H2747       H  0.26920252  0.62396573  0.98319119     0.12540
H2748       H  0.31532679  0.66377498  0.05695859     0.12540
C2749       C  0.33711236  0.53811769  0.10273349    -0.13590
C2750       C  0.32958408  0.52674757  0.07475483     0.08560
C2751       C  0.29998175  0.51773863  0.07001958    -0.13590
C2752       C  0.27885401  0.51958840  0.09278159    -0.13590
C2753       C  0.28666218  0.53075327  0.12085747     0.08560
C2754       C  0.31609005  0.54046280  0.12505399    -0.13590
H2755       H  0.35901476  0.54673648  0.10691804     0.12540
H2756       H  0.29299661  0.51021716  0.04819113     0.12540
H2757       H  0.25693764  0.51096709  0.08884879     0.12540
H2758       H  0.32353244  0.54829593  0.14658713     0.12540
C2759       C  0.72982193  0.13411053  0.33345926    -0.13590
C2760       C  0.74243233  0.13265442  0.30518985     0.08560
C2761       C  0.76062899  0.15589001  0.29599450    -0.13590
C2762       C  0.76571963  0.18024015  0.31451813    -0.13590
C2763       C  0.75309681  0.18142464  0.34267414     0.08560
C2764       C  0.73543491  0.15804754  0.35212440    -0.13590
H2765       H  0.71624054  0.11636426  0.34161062     0.12540
H2766       H  0.77134614  0.15505896  0.27476092     0.12540
H2767       H  0.77841727  0.19868688  0.30650228     0.12540
H2768       H  0.72443735  0.15918680  0.37331481     0.12540
C2769       C  0.65765718  0.22437260  0.35253641    -0.13590
C2770       C  0.67938184  0.24518648  0.34556507     0.08560
C2771       C  0.67750546  0.25962107  0.31838146    -0.13590
C2772       C  0.65512459  0.25251615  0.29811654    -0.13590
C2773       C  0.63383431  0.23100643  0.30463422     0.08560
C2774       C  0.63514233  0.21738696  0.33236448    -0.13590
H2775       H  0.65916416  0.21214344  0.37284987     0.12540
H2776       H  0.69460883  0.27491061  0.31200415     0.12540
H2777       H  0.65463799  0.26386136  0.27730410     0.12540
H2778       H  0.61871206  0.20130968  0.33855295     0.12540
C2779       C  0.63444464  0.05052846  0.32001338    -0.13590
C2780       C  0.61051926  0.03406912  0.30908718     0.08560
C2781       C  0.61041777  0.02541932  0.27890622    -0.13590
C2782       C  0.63372696  0.03284716  0.26028116    -0.13590
C2783       C  0.65805590  0.04846647  0.27156666     0.08560
C2784       C  0.65761537  0.05793488  0.30146008    -0.13590
H2785       H  0.63452409  0.05899085  0.34258951     0.12540
H2786       H  0.59133950  0.01434639  0.26943236     0.12540
H2787       H  0.63360785  0.02466554  0.23762285     0.12540
H2788       H  0.67638414  0.06928450  0.31115100     0.12540
C2789       C  0.52785671  0.10392749  0.28156916    -0.13590
C2790       C  0.54469702  0.10527417  0.30802335     0.08560
C2791       C  0.56772618  0.12630235  0.30861818    -0.13590
C2792       C  0.57280573  0.14555816  0.28469972    -0.13590
C2793       C  0.55523081  0.14509769  0.25872881     0.08560
C2794       C  0.53321447  0.12302974  0.25760382    -0.13590
H2795       H  0.51146541  0.08669957  0.27870929     0.12540
H2796       H  0.58297144  0.12681003  0.32710469     0.12540
H2797       H  0.59045013  0.16141559  0.28686387     0.12540
H2798       H  0.51941699  0.12095995  0.23820887     0.12540
C2799       C  0.02263484  0.60325334  0.27888477    -0.13590
C2800       C  0.03829511  0.60270928  0.30615756     0.08560
C2801       C  0.05835865  0.62591935  0.31154619    -0.13590
C2802       C  0.06181647  0.64893691  0.29103745    -0.13590
C2803       C  0.04599094  0.64952290  0.26389006     0.08560
C2804       C  0.02686892  0.62569661  0.25806355    -0.13590
H2805       H  0.00671468  0.58613036  0.27352244     0.12540
H2806       H  0.07141963  0.62635210  0.33164296     0.12540
H2807       H  0.07566259  0.66745937  0.29735643     0.12540
H2808       H  0.01339536  0.62549614  0.23827133     0.12540
C2809       C  0.07772007  0.49229239  0.28677280    -0.13590
C2810       C  0.07646441  0.51497767  0.30795316     0.08560
C2811       C  0.10061888  0.53383372  0.31267443    -0.13590
C2812       C  0.12561447  0.53056640  0.29613840    -0.13590
C2813       C  0.12762185  0.50745762  0.27539280     0.08560
C2814       C  0.10368153  0.48802665  0.27106760    -0.13590
H2815       H  0.05895393  0.47800407  0.28265340     0.12540
H2816       H  0.09967087  0.55186643  0.32866238     0.12540
H2817       H  0.14386062  0.54543466  0.30072782     0.12540
H2818       H  0.10531622  0.46926897  0.25623902     0.12540
C2819       C  0.18302138  0.75416418  0.28882365    -0.13590
C2820       C  0.19073708  0.72668615  0.29925509     0.08560
C2821       C  0.16924902  0.70476885  0.30343902    -0.13590
C2822       C  0.14035223  0.70979246  0.29617091    -0.13590
C2823       C  0.13232811  0.73711101  0.28531486     0.08560
C2824       C  0.15372657  0.75951247  0.28224304    -0.13590
H2825       H  0.19944458  0.77120542  0.28584250     0.12540
H2826       H  0.17505973  0.68346759  0.31199777     0.12540
H2827       H  0.12435081  0.69242811  0.29944460     0.12540
H2828       H  0.14783162  0.78122537  0.27495003     0.12540
C2829       C  0.23554388  0.64063802  0.25118878    -0.13590
C2830       C  0.22883624  0.64178902  0.28172581     0.08560
C2831       C  0.21154650  0.61905172  0.29318211    -0.13590
C2832       C  0.20343380  0.59482161  0.27539911    -0.13590
C2833       C  0.21288489  0.59220179  0.24579838     0.08560
C2834       C  0.22757338  0.61616165  0.23340489    -0.13590
H2835       H  0.24806541  0.65818036  0.24122681     0.12540
H2836       H  0.20451297  0.61975928  0.31603144     0.12540
H2837       H  0.19235535  0.57653417  0.28574999     0.12540
H2838       H  0.23558640  0.61468532  0.21092065     0.12540
C2839       C  0.31523964  0.17655155  0.72339087    -0.13590
C2840       C  0.33930286  0.18201569  0.70581418     0.08560
C2841       C  0.34593692  0.16299959  0.68178187    -0.13590
C2842       C  0.32996876  0.13730437  0.67690587    -0.13590
C2843       C  0.30807022  0.12987587  0.69684164     0.08560
C2844       C  0.29983550  0.15048711  0.71902274    -0.13590
H2845       H  0.30984207  0.19116659  0.74171718     0.12540
H2846       H  0.36468487  0.16711365  0.66792244     0.12540
H2847       H  0.33718756  0.12179565  0.66005605     0.12540
H2848       H  0.28443726  0.14471923  0.73583435     0.12540
C2849       C  0.36823007  0.20528505  0.61855775    -0.13590
C2850       C  0.36465165  0.22988993  0.63728472     0.08560
C2851       C  0.34435517  0.25158897  0.62968614    -0.13590
C2852       C  0.32716692  0.24809495  0.60423084    -0.13590
C2853       C  0.32954264  0.22251524  0.58683203     0.08560
C2854       C  0.35054609  0.20148846  0.59372144    -0.13590
H2855       H  0.38358374  0.18814139  0.62391506     0.12540
H2856       H  0.34141138  0.27079507  0.64383157     0.12540
H2857       H  0.31280458  0.26561894  0.59768169     0.12540
H2858       H  0.35368181  0.18241268  0.57939337     0.12540
C2859       C  0.28564283  0.02330471  0.58907376    -0.13590
C2860       C  0.29328714  0.03871346  0.61526831     0.08560
C2861       C  0.32300344  0.04829246  0.61784435    -0.13590
C2862       C  0.34413530  0.04225820  0.59590318    -0.13590
C2863       C  0.33669083  0.02621699  0.57012826     0.08560
C2864       C  0.30685383  0.01721616  0.56702340    -0.13590
H2865       H  0.26371213  0.01428194  0.58640685     0.12540
H2866       H  0.33065028  0.05899815  0.63799749     0.12540
H2867       H  0.36628400  0.05063108  0.59894188     0.12540
H2868       H  0.29983131  0.00542185  0.54714866     0.12540
C2869       C  0.32530601  0.08158297  0.47396939    -0.13590
C2870       C  0.35380414  0.07743445  0.48511400     0.08560
C2871       C  0.36911613  0.10142677  0.49769992    -0.13590
C2872       C  0.35506911  0.12787573  0.50248774    -0.13590
C2873       C  0.32584483  0.13161455  0.49343096     0.08560
C2874       C  0.31152030  0.10869778  0.47796680    -0.13590
H2875       H  0.31295337  0.06319726  0.46453806     0.12540
H2876       H  0.39086393  0.09881883  0.50703311     0.12540
H2877       H  0.36704900  0.14543113  0.51390627     0.12540
H2878       H  0.28990959  0.11155401  0.46923964     0.12540
C2879       C  0.03971196  0.31144693  0.58388688    -0.13590
C2880       C  0.04791480  0.34155711  0.58461210     0.08560
C2881       C  0.06522311  0.35181276  0.60842555    -0.13590
C2882       C  0.07332803  0.33286231  0.63109091    -0.13590
C2883       C  0.06414752  0.30309671  0.63093593     0.08560
C2884       C  0.04870354  0.29237107  0.60620950    -0.13590
H2885       H  0.02738531  0.30243062  0.56521025     0.12540
H2886       H  0.07325803  0.37431364  0.60908707     0.12540
H2887       H  0.08475888  0.34216831  0.65010944     0.12540
H2888       H  0.04149703  0.26970251  0.60566743     0.12540
C2889       C  0.12095279  0.34755827  0.48125663    -0.13590
C2890       C  0.10982537  0.34716930  0.50975129     0.08560
C2891       C  0.12496121  0.33273773  0.53258405    -0.13590
C2892       C  0.14963086  0.31636140  0.52624879    -0.13590
C2893       C  0.15993401  0.31550207  0.49734831     0.08560
C2894       C  0.14588291  0.33169042  0.47504429    -0.13590
H2895       H  0.10960914  0.35877037  0.46366303     0.12540
H2896       H  0.11686384  0.33310880  0.55509723     0.12540
H2897       H  0.16009908  0.30400114  0.54356790     0.12540
H2898       H  0.15328300  0.33087001  0.45230313     0.12540
C2899       C  0.19571300  0.33181328  0.71473218    -0.13590
C2900       C  0.19815726  0.35482426  0.69475812     0.08560
C2901       C  0.17303446  0.36738687  0.68260985    -0.13590
C2902       C  0.14562672  0.35607722  0.68915609    -0.13590
C2903       C  0.14289245  0.33265186  0.70876940     0.08560
C2904       C  0.16808732  0.32113166  0.72216585    -0.13590
H2905       H  0.21511753  0.32146742  0.72353190     0.12540
H2906       H  0.17478070  0.38464959  0.66644310     0.12540
H2907       H  0.12661652  0.36593550  0.67902875     0.12540
H2908       H  0.16649902  0.30372699  0.73805434     0.12540
C2909       C  0.25732051  0.29549214  0.61318178    -0.13590
C2910       C  0.24761697  0.32451825  0.60846906     0.08560
C2911       C  0.22992149  0.32918078  0.58355096    -0.13590
C2912       C  0.22372700  0.30617465  0.56314819    -0.13590
C2913       C  0.23544029  0.27763543  0.56634739     0.08560
C2914       C  0.25147929  0.27252531  0.59240200    -0.13590
H2915       H  0.26977850  0.29066386  0.63296938     0.12540
H2916       H  0.22077740  0.35070790  0.57983733     0.12540
H2917       H  0.21271186  0.31175001  0.54277516     0.12540
H2918       H  0.26156430  0.25134720  0.59551175     0.12540
C2919       C  0.34811603  0.15468863  0.41668551    -0.13590
C2920       C  0.35421503  0.18041277  0.43332837     0.08560
C2921       C  0.37897325  0.18114475  0.45214065    -0.13590
C2922       C  0.39790247  0.15762104  0.45316420    -0.13590
C2923       C  0.39428453  0.13398622  0.43329954     0.08560
C2924       C  0.36861154  0.13189108  0.41593293    -0.13590
H2925       H  0.32844468  0.15285780  0.40327686     0.12540
H2926       H  0.38396147  0.20011073  0.46619360     0.12540
H2927       H  0.41777599  0.15989040  0.46634429     0.12540
H2928       H  0.36576824  0.11400221  0.40000845     0.12540
C2929       C  0.47699718  0.15563819  0.34392563    -0.13590
C2930       C  0.47478355  0.16353140  0.37377074     0.08560
C2931       C  0.47187952  0.19415121  0.38057496    -0.13590
C2932       C  0.47216388  0.21598990  0.35818254    -0.13590
C2933       C  0.47397481  0.20771660  0.32807413     0.08560
C2934       C  0.47617543  0.17693063  0.32186584    -0.13590
H2935       H  0.47773520  0.13260954  0.33740607     0.12540
H2936       H  0.46862473  0.20109914  0.40335696     0.12540
H2937       H  0.47143529  0.23904640  0.36447001     0.12540
H2938       H  0.47821422  0.16885989  0.29933959     0.12540
C2939       C  0.26939786  0.04729614  0.26693258    -0.13520
C2940       C  0.27629531  0.07223313  0.27672802    -0.15080
C2941       C  0.32180182  0.17847665  0.34737063    -0.13590
C2942       C  0.29585202  0.17706230  0.32994833     0.08560
C2943       C  0.28116549  0.20409953  0.32676912    -0.13590
C2944       C  0.29093350  0.23053967  0.34100193    -0.13590
C2945       C  0.31591197  0.23169251  0.35970999     0.08560
C2946       C  0.33154301  0.20503091  0.36190930    -0.13590
H2947       H  0.33561651  0.15928864  0.34838088     0.12540
H2948       H  0.26290238  0.20519236  0.31141341     0.12540
H2949       H  0.27860546  0.25034606  0.33727868     0.12540
H2950       H  0.35156166  0.20466093  0.37483333     0.12540
C2951       C  0.37081023  0.19226083  0.22930887    -0.13590
C2952       C  0.39387583  0.18514628  0.24869831     0.08560
C2953       C  0.39123232  0.16028849  0.26644612    -0.13590
C2954       C  0.36594538  0.14311371  0.26510567    -0.13590
C2955       C  0.34246584  0.15099182  0.24675103     0.08560
C2956       C  0.34526360  0.17528244  0.22836506    -0.13590
H2957       H  0.37248350  0.21089191  0.21478210     0.12540
H2958       H  0.40885351  0.15380272  0.28105701     0.12540
H2959       H  0.36365153  0.12509798  0.28035989     0.12540
H2960       H  0.32683418  0.18239523  0.21515589     0.12540
C2961       C  0.36459222  0.27644381  0.17140583    -0.13590
C2962       C  0.37271339  0.28059068  0.14121584     0.08560
C2963       C  0.40229243  0.28832315  0.13701450    -0.13590
C2964       C  0.42239097  0.29183747  0.16060754    -0.13590
C2965       C  0.41531814  0.28713520  0.19078565     0.08560
C2966       C  0.38564939  0.27851814  0.19552271    -0.13590
H2967       H  0.34183355  0.27200177  0.17648205     0.12540
H2968       H  0.40984115  0.29311160  0.11489056     0.12540
H2969       H  0.44465065  0.29669873  0.15445466     0.12540
H2970       H  0.37875369  0.27289853  0.21761553     0.12540
C2971       C  0.29377693  0.36404936  0.09996296    -0.13590
C2972       C  0.32435466  0.36279292  0.09680233     0.08560
C2973       C  0.34214176  0.38202559  0.11376111    -0.13590
C2974       C  0.33070973  0.39468452  0.13929876    -0.13590
C2975       C  0.30089593  0.39089182  0.14581353     0.08560
C2976       C  0.28221581  0.37711953  0.12500300    -0.13590
H2977       H  0.27910819  0.35068981  0.08625875     0.12540
H2978       H  0.36569567  0.38230558  0.11079430     0.12540
H2979       H  0.34544483  0.40593409  0.15460694     0.12540
H2980       H  0.25876561  0.37556869  0.12844629     0.12540
C2981       C  0.47466778  0.40299461  0.13731736    -0.13590
C2982       C  0.49118329  0.42683815  0.14868286     0.08560
C2983       C  0.50900687  0.42360810  0.17351940    -0.13590
C2984       C  0.51034155  0.39646443  0.18695171    -0.13590
C2985       C  0.49315825  0.37266440  0.17628317     0.08560
C2986       C  0.47539313  0.37612760  0.15120329    -0.13590
H2987       H  0.45994013  0.40571357  0.11865567     0.12540
H2988       H  0.52112498  0.44219447  0.18287201     0.12540
H2989       H  0.52525208  0.39401194  0.20524589     0.12540
H2990       H  0.46241033  0.35803832  0.14203777     0.12540
C2991       C  0.38483252  0.47094669  0.15039955    -0.13590
C2992       C  0.41024608  0.48475173  0.16136345     0.08560
C2993       C  0.41106398  0.49211041  0.19211906    -0.13590
C2994       C  0.38735575  0.48547042  0.21113375    -0.13590
C2995       C  0.36219540  0.47079636  0.20014134     0.08560
C2996       C  0.36142138  0.46441483  0.16925366    -0.13590
H2997       H  0.38327994  0.46444002  0.12725347     0.12540
H2998       H  0.43045343  0.50262088  0.20157710     0.12540
H2999       H  0.38820871  0.49295022  0.23401631     0.12540
H3000       H  0.34161532  0.45590498  0.15896869     0.12540
C3001       C  0.19672696  0.35393079  0.28121344    -0.13590
C3002       C  0.18636431  0.33729693  0.25635647     0.08560
C3003       C  0.20044102  0.34175805  0.22932029    -0.13590
C3004       C  0.22306043  0.36295996  0.22693055    -0.13590
C3005       C  0.23283884  0.38044934  0.25144310     0.08560
C3006       C  0.21948434  0.37508415  0.27881729    -0.13590
H3007       H  0.18725917  0.35024120  0.30279120     0.12540
H3008       H  0.19419119  0.32860066  0.21005311     0.12540
H3009       H  0.23180061  0.36685569  0.20519197     0.12540
H3010       H  0.22537735  0.38844888  0.29805768     0.12540
C3011       C  0.19251834  0.23290510  0.32466196    -0.13590
C3012       C  0.17633448  0.25901103  0.32200425     0.08560
C3013       C  0.18156107  0.28178236  0.34274775    -0.13590
C3014       C  0.20444072  0.28025647  0.36305655    -0.13590
C3015       C  0.22158124  0.25480336  0.36544656     0.08560
C3016       C  0.21415646  0.23038736  0.34711947    -0.13590
H3017       H  0.18947381  0.21517445  0.30860632     0.12540
H3018       H  0.16988171  0.30234615  0.34105296     0.12540
H3019       H  0.20852963  0.29939111  0.37715779     0.12540
H3020       H  0.22568975  0.20990124  0.34941703     0.12540
C3021       C  0.16734698  0.44778516  0.37894169    -0.13590
C3022       C  0.18790761  0.46054080  0.39883756     0.08560
C3023       C  0.21698164  0.46453504  0.38994044    -0.13590
C3024       C  0.22470243  0.45815720  0.36083917    -0.13590
C3025       C  0.20333451  0.44843428  0.34032375     0.08560
C3026       C  0.17504109  0.44178646  0.34979344    -0.13590
H3027       H  0.14512559  0.44294411  0.38580509     0.12540
H3028       H  0.23340884  0.47323188  0.40524383     0.12540
H3029       H  0.24667539  0.46331913  0.35361480     0.12540
H3030       H  0.15820591  0.43483539  0.33407092     0.12540
C3031       C  0.19131009  0.38369329  0.45020105    -0.13590
C3032       C  0.19111637  0.40211337  0.47547220     0.08560
C3033       C  0.21162524  0.39697641  0.49815094    -0.13590
C3034       C  0.23228132  0.37424278  0.49507760    -0.13590
C3035       C  0.23417702  0.35786963  0.46834963     0.08560
C3036       C  0.21315056  0.36290237  0.44614454    -0.13590
H3037       H  0.17634975  0.38767227  0.43198897     0.12540
H3038       H  0.21266243  0.41145716  0.51741519     0.12540
H3039       H  0.24746344  0.37027204  0.51305025     0.12540
H3040       H  0.21316795  0.35030927  0.42556683     0.12540
C3041       C  0.29872630  0.40009999  0.49051920    -0.13590
C3042       C  0.31465707  0.40030378  0.51744040     0.08560
C3043       C  0.33656020  0.37877428  0.52027887    -0.13590
C3044       C  0.34250922  0.35835864  0.49698617    -0.13590
C3045       C  0.32691002  0.35874184  0.46982234     0.08560
C3046       C  0.30495595  0.38015899  0.46719993    -0.13590
H3047       H  0.28273460  0.41708630  0.48664259     0.12540
H3048       H  0.35055875  0.37905561  0.53973799     0.12540
H3049       H  0.35978400  0.34257214  0.50010818     0.12540
H3050       H  0.29231872  0.38156292  0.44692107     0.12540
C3051       C  0.39696341  0.44936197  0.52893501    -0.13590
C3052       C  0.37784627  0.47073100  0.51827054     0.08560
C3053       C  0.38290197  0.48265739  0.49023079    -0.13590
C3054       C  0.40831510  0.47529511  0.47455565    -0.13590
C3055       C  0.42865506  0.45586997  0.48673280     0.08560
C3056       C  0.42152689  0.44136708  0.51291388    -0.13590
H3057       H  0.39237186  0.43818676  0.54942986     0.12540
H3058       H  0.36725024  0.49755679  0.48062064     0.12540
H3059       H  0.41327883  0.48659501  0.45428007     0.12540
H3060       H  0.43688857  0.42641523  0.52289134     0.12540
C3061       C  0.37426177  0.30407083  0.58581308    -0.13590
C3062       C  0.39819730  0.28476886  0.58754787     0.08560
C3063       C  0.40349596  0.26611710  0.56308371    -0.13590
C3064       C  0.38605273  0.26717137  0.53742837    -0.13590
C3065       C  0.36203853  0.28636798  0.53552477     0.08560
C3066       C  0.35606150  0.30444775  0.56040896    -0.13590
H3067       H  0.37039810  0.31973203  0.60366285     0.12540
H3068       H  0.42251089  0.25203591  0.56306765     0.12540
H3069       H  0.39123767  0.25254390  0.51906693     0.12540
H3070       H  0.33757899  0.31920221  0.56007614     0.12540
C3071       C  0.47562812  0.36859761  0.59522162    -0.13590
C3072       C  0.48778196  0.34056216  0.59785935     0.08560
C3073       C  0.50906228  0.33126750  0.57753800    -0.13590
C3074       C  0.51663453  0.34910177  0.55375597    -0.13590
C3075       C  0.50213609  0.37582355  0.54952849     0.08560
C3076       C  0.48209575  0.38568511  0.57087268    -0.13590
H3077       H  0.45865362  0.37583211  0.61029848     0.12540
H3078       H  0.51800760  0.30934480  0.57873195     0.12540
H3079       H  0.53292635  0.34159201  0.53809006     0.12540
H3080       H  0.47144714  0.40675143  0.56882954     0.12540
C3081       C  0.66518005  0.52498805  0.38019365    -0.13590
C3082       C  0.65538922  0.55192751  0.36903613     0.08560
C3083       C  0.63203728  0.56621388  0.38279612    -0.13590
C3084       C  0.62332865  0.55738368  0.41063246    -0.13590
C3085       C  0.63673884  0.53330179  0.42423493     0.08560
C3086       C  0.65645104  0.51612422  0.40804274    -0.13590
H3087       H  0.68284538  0.51311432  0.36960728     0.12540
H3088       H  0.62374283  0.58663516  0.37418984     0.12540
H3089       H  0.60602302  0.56933680  0.42146025     0.12540
H3090       H  0.66574955  0.49641295  0.41721454     0.12540
C3091       C  0.75425454  0.63132330  0.40534582    -0.13590
C3092       C  0.73031900  0.61192958  0.40589452     0.08560
C3093       C  0.71294479  0.61272140  0.43226938    -0.13590
C3094       C  0.71720825  0.63426941  0.45522706    -0.13590
C3095       C  0.73981674  0.65525071  0.45331356     0.08560
C3096       C  0.75899937  0.65212223  0.42850165    -0.13590
H3097       H  0.76835289  0.63175560  0.38615006     0.12540
H3098       H  0.69485307  0.59737487  0.43465268     0.12540
H3099       H  0.70199114  0.63531419  0.47349734     0.12540
H3100       H  0.77717989  0.66727785  0.42577108     0.12540
C3101       C  0.59527594  0.62406751  0.44207627    -0.13590
C3102       C  0.57096135  0.63763068  0.42822478     0.08560
C3103       C  0.54404904  0.63586746  0.44277097    -0.13590
C3104       C  0.54099076  0.61890601  0.46824230    -0.13590
C3105       C  0.56441495  0.60274832  0.48038874     0.08560
C3106       C  0.59211317  0.60743714  0.46794127    -0.13590
H3107       H  0.61666586  0.62425394  0.43189455     0.12540
H3108       H  0.52488925  0.64652874  0.43387124     0.12540
H3109       H  0.51912751  0.61554972  0.47582319     0.12540
H3110       H  0.61069511  0.59503162  0.47568464     0.12540
C3111       C  0.65803005  0.69433551  0.37526505    -0.13590
C3112       C  0.63007272  0.70523042  0.37003570     0.08560
C3113       C  0.62219095  0.73298937  0.38132849    -0.13590
C3114       C  0.63867377  0.74560017  0.40415525    -0.13590
C3115       C  0.66355217  0.73101053  0.41413572     0.08560
C3116       C  0.67464290  0.70695764  0.39787459    -0.13590
H3117       H  0.66446789  0.67322565  0.36605427     0.12540
H3118       H  0.60076816  0.74198624  0.37664155     0.12540
H3119       H  0.63076275  0.76515984  0.41544759     0.12540
H3120       H  0.69497312  0.69651106  0.40406182     0.12540
C3121       C  0.51267111  0.51585972  0.32801007    -0.13590
C3122       C  0.51755763  0.54634252  0.32439258     0.08560
C3123       C  0.52525928  0.56380462  0.34897763    -0.13590
C3124       C  0.52482163  0.55201645  0.37687617    -0.13590
C3125       C  0.51746341  0.52216132  0.38105117     0.08560
C3126       C  0.51235422  0.50382034  0.35634697    -0.13590
H3127       H  0.50678798  0.50194247  0.30915795     0.12540
H3128       H  0.52864952  0.58732523  0.34720178     0.12540
H3129       H  0.52954543  0.56683897  0.39538467     0.12540
H3130       H  0.50759841  0.48063963  0.35896111     0.12540
C3131       C  0.41013758  0.55690921  0.29680179    -0.13590
C3132       C  0.42720543  0.56799419  0.27350856     0.08560
C3133       C  0.41438561  0.57423499  0.24636290    -0.13590
C3134       C  0.38509270  0.56886166  0.24205476    -0.13590
C3135       C  0.36822102  0.55570633  0.26430073     0.08560
C3136       C  0.38045605  0.55057341  0.29212245    -0.13590
H3137       H  0.41983131  0.55281526  0.31826591     0.12540
H3138       H  0.42714654  0.58278041  0.22820115     0.12540
H3139       H  0.37589854  0.57392728  0.22056480     0.12540
H3140       H  0.36756698  0.54079332  0.30951239     0.12540
C3141       C  0.39626511  0.58194086  0.40837125    -0.13590
C3142       C  0.37421317  0.59085079  0.42784037     0.08560
C3143       C  0.37565411  0.58384296  0.45783773    -0.13590
C3144       C  0.39758875  0.56574477  0.46783846    -0.13590
C3145       C  0.41876922  0.55521913  0.44808445     0.08560
C3146       C  0.41850087  0.56409817  0.41845967    -0.13590
H3147       H  0.39488655  0.58684162  0.38501291     0.12540
H3148       H  0.35831986  0.59010662  0.47293038     0.12540
H3149       H  0.39784379  0.55992944  0.49098130     0.12540
H3150       H  0.43515833  0.55691119  0.40302775     0.12540
C3151       C  0.30406159  0.52160350  0.37559016    -0.13590
C3152       C  0.28826035  0.54811774  0.37999432     0.08560
C3153       C  0.26275980  0.55212059  0.36339749    -0.13590
C3154       C  0.25619191  0.53305275  0.33998063    -0.13590
C3155       C  0.27574211  0.51047870  0.33158187     0.08560
C3156       C  0.29854390  0.50344453  0.35076062    -0.13590
H3157       H  0.32237389  0.51614098  0.38971531     0.12540
H3158       H  0.24936257  0.57143310  0.36626520     0.12540
H3159       H  0.23740310  0.53826368  0.32631808     0.12540
H3160       H  0.31322025  0.48556136  0.34549907     0.12540
C3161       C  0.61301212  0.39690391  0.72244239    -0.13590
C3162       C  0.58972973  0.40604316  0.74053396     0.08560
C3163       C  0.59120166  0.43408458  0.75391984    -0.13590
C3164       C  0.61506905  0.45285668  0.74864224    -0.13590
C3165       C  0.63761365  0.44432596  0.72923786     0.08560
C3166       C  0.63643687  0.41587897  0.71656103    -0.13590
H3167       H  0.61178871  0.37587558  0.71079742     0.12540
H3168       H  0.57293491  0.44217698  0.76679869     0.12540
H3169       H  0.61572493  0.47415608  0.75956760     0.12540
H3170       H  0.65375741  0.40809379  0.70221671     0.12540
C3171       C  0.51751853  0.42393640  0.65384091    -0.13590
C3172       C  0.52923839  0.39634836  0.65930691     0.08560
C3173       C  0.54875916  0.38349840  0.63902700    -0.13590
C3174       C  0.55668134  0.39846463  0.61352791    -0.13590
C3175       C  0.54531901  0.42641885  0.60845799     0.08560
C3176       C  0.52596700  0.43901389  0.62898725    -0.13590
H3177       H  0.50339219  0.43459614  0.66988452     0.12540
H3178       H  0.55886149  0.36260521  0.64367501     0.12540
H3179       H  0.57055528  0.38779830  0.59728275     0.12540
H3180       H  0.51634385  0.46010264  0.62511272     0.12540
C3181       C  0.71969925  0.43520599  0.61879369    -0.13590
C3182       C  0.74108369  0.44236994  0.59787486     0.08560
C3183       C  0.75216310  0.47151646  0.59815367    -0.13590
C3184       C  0.74329368  0.49224699  0.61968459    -0.13590
C3185       C  0.72370787  0.48426491  0.64207326     0.08560
C3186       C  0.71094259  0.45588340  0.64025480    -0.13590
H3187       H  0.70920141  0.41372620  0.61813389     0.12540
H3188       H  0.76732049  0.47838126  0.58119342     0.12540
H3189       H  0.75365595  0.51377738  0.62028622     0.12540
H3190       H  0.69597801  0.44872730  0.65718714     0.12540
C3191       C  0.66125288  0.42681178  0.54353080    -0.13590
C3192       C  0.68414345  0.43523679  0.52480722     0.08560
C3193       C  0.68331163  0.46346827  0.51242044    -0.13590
C3194       C  0.65976422  0.48230171  0.51803599    -0.13590
C3195       C  0.63602831  0.47303098  0.53525259     0.08560
C3196       C  0.63780164  0.44556843  0.54894828    -0.13590
H3197       H  0.66208332  0.40609835  0.55499118     0.12540
H3198       H  0.70150782  0.47131039  0.49932506     0.12540
H3199       H  0.65919887  0.50339052  0.50733879     0.12540
H3200       H  0.61994738  0.43757616  0.56225263     0.12540
C3201       C  0.60006701  0.37234560  0.27815954    -0.13590
C3202       C  0.59161160  0.39765281  0.26295912     0.08560
C3203       C  0.56127641  0.39893314  0.25512362    -0.13590
C3204       C  0.54070588  0.37636331  0.26189772    -0.13590
C3205       C  0.54934349  0.35049754  0.27587632     0.08560
C3206       C  0.57957565  0.34941293  0.28419004    -0.13590
H3207       H  0.62256416  0.37020165  0.28551897     0.12540
H3208       H  0.55317214  0.41777436  0.24340409     0.12540
H3209       H  0.51830895  0.37826226  0.25418947     0.12540
H3210       H  0.58802965  0.32968416  0.29391879     0.12540
C3211       C  0.59303143  0.50253187  0.32093648    -0.13590
C3212       C  0.60945611  0.47932394  0.31019703     0.08560
C3213       C  0.61953499  0.45724769  0.32922014    -0.13590
C3214       C  0.61227431  0.45791000  0.35890301    -0.13590
C3215       C  0.59559070  0.48107947  0.36980892     0.08560
C3216       C  0.58655257  0.50366653  0.35074647    -0.13590
H3217       H  0.58514236  0.51943427  0.30636298     0.12540
H3218       H  0.63233146  0.43903776  0.32077177     0.12540
H3219       H  0.62008338  0.44080002  0.37326905     0.12540
H3220       H  0.57464945  0.52251148  0.35884754     0.12540
C3221       C  0.62231104  0.27807727  0.38654734    -0.13590
C3222       C  0.61197681  0.26121962  0.41010193     0.08560
C3223       C  0.58542293  0.24557196  0.40656114    -0.13590
C3224       C  0.56898680  0.24774021  0.38042059    -0.13590
C3225       C  0.57863292  0.26588011  0.35741776     0.08560
C3226       C  0.60575489  0.28063118  0.36067967    -0.13590
H3227       H  0.64211773  0.29126644  0.38913307     0.12540
H3228       H  0.57640189  0.23346360  0.42488550     0.12540
H3229       H  0.54861044  0.23541826  0.37835290     0.12540
H3230       H  0.61437073  0.29411536  0.34314977     0.12540
C3231       C  0.61050547  0.36581390  0.44794981    -0.13590
C3232       C  0.59849200  0.34343180  0.46514138     0.08560
C3233       C  0.56834012  0.34421039  0.47177557    -0.13590
C3234       C  0.55107112  0.36779475  0.46281842    -0.13590
C3235       C  0.56376191  0.39131494  0.44768522     0.08560
C3236       C  0.59328282  0.38929088  0.43909108    -0.13590
H3237       H  0.63318059  0.36493624  0.44102574     0.12540
H3238       H  0.55818812  0.32640937  0.48376544     0.12540
H3239       H  0.52850206  0.36891294  0.47002342     0.12540
H3240       H  0.60382697  0.40736126  0.42789928     0.12540
C3241       C  0.46159387  0.49898041  0.62781581    -0.13590
C3242       C  0.47480394  0.51656464  0.65002604     0.08560
C3243       C  0.50503521  0.52336550  0.64726121    -0.13590
C3244       C  0.51854182  0.52093881  0.61961606    -0.13590
C3245       C  0.50258886  0.50911207  0.59567162     0.08560
C3246       C  0.47512239  0.49578914  0.60077665    -0.13590
H3247       H  0.43915042  0.49132584  0.62909229     0.12540
H3248       H  0.51704102  0.53418656  0.66515404     0.12540
H3249       H  0.54057637  0.52942911  0.61669829     0.12540
H3250       H  0.46290730  0.48453632  0.58323239     0.12540
C3251       C  0.46467869  0.62815557  0.70701720    -0.13590
C3252       C  0.45878401  0.61816886  0.67825535     0.08560
C3253       C  0.47450696  0.63093817  0.65468384    -0.13590
C3254       C  0.49508270  0.65393777  0.65993138    -0.13590
C3255       C  0.50110109  0.66368631  0.68899734     0.08560
C3256       C  0.48547581  0.65026583  0.71226275    -0.13590
H3257       H  0.45399606  0.61797280  0.72566485     0.12540
H3258       H  0.47125567  0.62260070  0.63229188     0.12540
H3259       H  0.50541741  0.66461625  0.64141591     0.12540
H3260       H  0.48815551  0.65809618  0.73487744     0.12540
C3261       C  0.41759516  0.62994600  0.52220306    -0.13590
C3262       C  0.43118774  0.65551902  0.51158493     0.08560
C3263       C  0.46193952  0.65687027  0.51000054    -0.13590
C3264       C  0.47861552  0.63310917  0.51848597    -0.13590
C3265       C  0.46487183  0.60673272  0.52605202     0.08560
C3266       C  0.43437609  0.60563599  0.52928103    -0.13590
H3267       H  0.39405155  0.62865752  0.52494272     0.12540
H3268       H  0.47316256  0.67638765  0.50234347     0.12540
H3269       H  0.50221187  0.63456319  0.51702330     0.12540
H3270       H  0.42337765  0.58522718  0.53475057     0.12540
C3271       C  0.44188764  0.75993722  0.56140950    -0.13590
C3272       C  0.41637104  0.74232769  0.56118405     0.08560
C3273       C  0.40962710  0.72603110  0.58635610    -0.13590
C3274       C  0.42927737  0.72498399  0.60999954    -0.13590
C3275       C  0.45576530  0.74112173  0.60962331     0.08560
C3276       C  0.46132044  0.75948715  0.58551557    -0.13590
H3277       H  0.44806104  0.77186129  0.54182027     0.12540
H3278       H  0.39057147  0.71158830  0.58639412     0.12540
H3279       H  0.42357262  0.71144643  0.62863970     0.12540
H3280       H  0.48089035  0.77308971  0.58503465     0.12540
C3281       C  0.21602295  0.02761335  0.32156962    -0.13520
C3282       C  0.22340998  0.01593100  0.29749645    -0.15080
C3283       C  0.21320367  0.15664380  0.41789852    -0.13590
C3284       C  0.22472864  0.15589263  0.44709750     0.08560
C3285       C  0.23644520  0.12929499  0.45638501    -0.13590
C3286       C  0.23864763  0.10502554  0.43664818    -0.13590
C3287       C  0.22765608  0.10588450  0.40722405     0.08560
C3288       C  0.21453110  0.13215075  0.39842038    -0.13590
H3289       H  0.20481797  0.17710170  0.40944882     0.12540
H3290       H  0.24526012  0.12785945  0.47858393     0.12540
H3291       H  0.24719778  0.08461104  0.44499912     0.12540
H3292       H  0.20425344  0.13338747  0.37680466     0.12540
C3293       C  0.13117079  0.05778202  0.41504639    -0.13590
C3294       C  0.15328865  0.03655627  0.41686292     0.08560
C3295       C  0.15737156  0.02320695  0.44454523    -0.13590
C3296       C  0.13898957  0.02966382  0.46880199    -0.13590
C3297       C  0.11562246  0.04946091  0.46632586     0.08560
C3298       C  0.11353390  0.06475254  0.43952342    -0.13590
H3299       H  0.12904754  0.07072718  0.39523985     0.12540
H3300       H  0.17597920  0.00899836  0.44784202     0.12540
H3301       H  0.14234205  0.01824851  0.48929582     0.12540
H3302       H  0.09715011  0.08138193  0.43692569     0.12540
C3303       C  0.11335974  0.25274903  0.38112580    -0.13590
C3304       C  0.09728439  0.22693220  0.38372357     0.08560
C3305       C  0.10833840  0.20338718  0.40025323    -0.13590
C3306       C  0.13498306  0.20635205  0.41534046    -0.13590
C3307       C  0.15057187  0.23283483  0.41374464     0.08560
C3308       C  0.13952023  0.25586279  0.39637875    -0.13590
H3309       H  0.10498220  0.27096426  0.36855975     0.12540
H3310       H  0.09596231  0.18302660  0.40196913     0.12540
H3311       H  0.14298112  0.18846563  0.42859615     0.12540
H3312       H  0.15039126  0.27708860  0.39556946     0.12540
C3313       C  0.03854449  0.14800463  0.38262623    -0.13590
C3314       C  0.01951231  0.17052277  0.39134487     0.08560
C3315       C  0.00781810  0.17068970  0.41998034    -0.13590
C3316       C  0.01512446  0.14849438  0.43958197    -0.13590
C3317       C  0.03442489  0.12607472  0.43081321     0.08560
C3318       C  0.04636298  0.12640962  0.40225568    -0.13590
H3319       H  0.04906203  0.14831603  0.36116938     0.12540
H3320       H  0.99445504  0.18883471  0.42758955     0.12540
H3321       H  0.00539335  0.14870899  0.46134738     0.12540
H3322       H  0.06104306  0.10935365  0.39458475     0.12540
C3323       C  0.12750267  0.46927290  0.19345994    -0.13590
C3324       C  0.15285860  0.45829639  0.18008824     0.08560
C3325       C  0.15285015  0.42846340  0.17073466    -0.13590
C3326       C  0.12900106  0.40972239  0.17608909    -0.13590
C3327       C  0.10401865  0.42033248  0.19040087     0.08560
C3328       C  0.10331817  0.45056935  0.19832085    -0.13590
H3329       H  0.12710892  0.49167783  0.20197776     0.12540
H3330       H  0.17242635  0.41901659  0.16118178     0.12540
H3331       H  0.12983480  0.38705225  0.16840117     0.12540
H3332       H  0.08380813  0.45973326  0.20825537     0.12540
C3333       C  0.00954720  0.43524493  0.12949038    -0.13590
C3334       C  0.02306906  0.40784452  0.13129514     0.08560
C3335       C  0.04013376  0.39746395  0.10766878    -0.13590
C3336       C  0.04662400  0.41571919  0.08425860    -0.13590
C3337       C  0.03531217  0.44428049  0.08365969     0.08560
C3338       C  0.01575715  0.45344678  0.10587655    -0.13590
H3339       H  0.99690319  0.44377434  0.14789445     0.12540
H3340       H  0.05117869  0.37651821  0.10897082     0.12540
H3341       H  0.06066118  0.40749730  0.06678130     0.12540
H3342       H  0.00569332  0.47489807  0.10536295     0.12540
C3343       C  0.26179840  0.43504476  0.04521774    -0.13590
C3344       C  0.24181025  0.41262262  0.03847055     0.08560
C3345       C  0.22319633  0.40140103  0.06046169    -0.13590
C3346       C  0.22308031  0.41393825  0.08839278    -0.13590
C3347       C  0.24274851  0.43668382  0.09521373     0.08560
C3348       C  0.26292054  0.44635047  0.07390041    -0.13590
H3349       H  0.27598470  0.44394670  0.02837498     0.12540
H3350       H  0.20732250  0.38414376  0.05544258     0.12540
H3351       H  0.20836715  0.40514343  0.10486775     0.12540
H3352       H  0.27979362  0.46225960  0.07952280     0.12540
C3353       C  0.14888713  0.44015917  0.97404739    -0.13590
C3354       C  0.15639863  0.42575274  0.99993288     0.08560
C3355       C  0.14604544  0.43815748  0.02698899    -0.13590
C3356       C  0.12731382  0.46320259  0.02754082    -0.13590
C3357       C  0.11984340  0.47773409  0.00117181     0.08560
C3358       C  0.13145707  0.46527208  0.97469693    -0.13590
H3359       H  0.15723373  0.43230867  0.95296179     0.12540
H3360       H  0.15263862  0.42856476  0.04773697     0.12540
H3361       H  0.11784489  0.47038230  0.04832877     0.12540
H3362       H  0.12508707  0.47320922  0.95344392     0.12540
C3363       C  0.42517417  0.22599588  0.11177780    -0.13590
C3364       C  0.43035582  0.22470749  0.08130333     0.08560
C3365       C  0.46023414  0.21918443  0.07334008    -0.13590
C3366       C  0.48352382  0.21658566  0.09520566    -0.13590
C3367       C  0.47747279  0.21732355  0.12605600     0.08560
C3368       C  0.44733389  0.22185553  0.13290640    -0.13590
H3369       H  0.40282294  0.22781290  0.11956116     0.12540
H3370       H  0.46550912  0.21604510  0.05018662     0.12540
H3371       H  0.50589281  0.21389724  0.08788749     0.12540
H3372       H  0.43998423  0.22264734  0.15546373     0.12540
C3373       C  0.37567076  0.13753243  0.01999293    -0.13590
C3374       C  0.36841704  0.14439177  0.04933529     0.08560
C3375       C  0.37798944  0.12595527  0.07201871    -0.13590
C3376       C  0.40032038  0.10599348  0.06621513    -0.13590
C3377       C  0.41241833  0.10431592  0.03773633     0.08560
C3378       C  0.39906605  0.11940971  0.01454209    -0.13590
H3379       H  0.36782719  0.15067805  0.00183142     0.12540
H3380       H  0.37192807  0.13046029  0.09477977     0.12540
H3381       H  0.40909624  0.09322823  0.08414719     0.12540
H3382       H  0.40719460  0.11802576  0.99212406     0.12540
C3383       C  0.29878186  0.01677281  0.21501011    -0.13520
C3384       C  0.32278563  0.02396015  0.20572034    -0.15080
C3385       C  0.39586571  0.11309151  0.20778996    -0.13590
C3386       C  0.40323795  0.09190038  0.22874555     0.08560
C3387       C  0.42926699  0.09512371  0.24507855    -0.13590
C3388       C  0.44965571  0.11655706  0.23729724    -0.13590
C3389       C  0.44414259  0.13496041  0.21320547     0.08560
C3390       C  0.41649074  0.13395916  0.19947338    -0.13590
H3391       H  0.37586693  0.11081301  0.19482183     0.12540
H3392       H  0.43538238  0.07879416  0.26110216     0.12540
H3393       H  0.46993998  0.11814272  0.24967606     0.12540
H3394       H  0.41097690  0.14884601  0.18187395     0.12540
C3395       C  0.43395039  0.00622078  0.14204435    -0.13590
C3396       C  0.42016776  0.03252846  0.14930383     0.08560
C3397       C  0.43145433  0.05887303  0.13717379    -0.13590
C3398       C  0.45557052  0.05866754  0.11774550    -0.13590
C3399       C  0.46915286  0.03209380  0.11013209     0.08560
C3400       C  0.45775069  0.00606243  0.12267372    -0.13590
H3401       H  0.42651334  0.98578917  0.15158239     0.12540
H3402       H  0.42175799  0.07976947  0.14322548     0.12540
H3403       H  0.46240067  0.07891262  0.10741697     0.12540
H3404       H  0.46573891  0.98496975  0.11548906     0.12540
C3405       C  0.86993841  0.81587071  0.18180501    -0.13590
C3406       C  0.85379220  0.79247115  0.16819383     0.08560
C3407       C  0.85907670  0.76392486  0.17759712    -0.13590
C3408       C  0.88049252  0.75883728  0.19926422    -0.13590
C3409       C  0.89660994  0.78213160  0.21316082     0.08560
C3410       C  0.89078054  0.81082204  0.20416368    -0.13590
H3411       H  0.86548761  0.83836671  0.17579196     0.12540
H3412       H  0.84636801  0.74561624  0.16851914     0.12540
H3413       H  0.88570504  0.73625132  0.20392442     0.12540
H3414       H  0.90361571  0.82915130  0.21302136     0.12540
C3415       C  0.80952202  0.88305042  0.17410631    -0.13590
C3416       C  0.78749418  0.86188114  0.17858908     0.08560
C3417       C  0.77387580  0.86084256  0.20636762    -0.13590
C3418       C  0.78033651  0.88224489  0.22814475    -0.13590
C3419       C  0.80009417  0.90527676  0.22232970     0.08560
C3420       C  0.81637427  0.90385087  0.19613144    -0.13590
H3421       H  0.82232859  0.88266236  0.15396790     0.12540
H3422       H  0.75875949  0.84310212  0.21132603     0.12540
H3423       H  0.76831735  0.88199534  0.24868533     0.12540
H3424       H  0.83280441  0.92036748  0.19163412     0.12540
C3425       C  0.97360203  0.90417928  0.13507096    -0.13590
C3426       C  0.98612040  0.92623114  0.15350679     0.08560
C3427       C  0.98797293  0.92154425  0.18411403    -0.13590
C3428       C  0.97760608  0.89547194  0.19597583    -0.13590
C3429       C  0.96702988  0.87274587  0.17734430     0.08560
C3430       C  0.96423774  0.87757435  0.14691358    -0.13590
H3431       H  0.97080945  0.90759296  0.11155583     0.12540
H3432       H  0.99704033  0.93832840  0.19892984     0.12540
H3433       H  0.98053533  0.89183693  0.21943967     0.12540
H3434       H  0.95722519  0.85989461  0.13201663     0.12540
C3435       C  0.90693182  0.98564387  0.13522548    -0.13590
C3436       C  0.92850907  0.00284758  0.14989728     0.08560
C3437       C  0.92354954  0.01277014  0.17889143    -0.13590
C3438       C  0.89842451  0.00396244  0.19364017    -0.13590
C3439       C  0.87684773  0.98654535  0.17921469     0.08560
C3440       C  0.88125801  0.97757711  0.14974936    -0.13590
H3441       H  0.91087249  0.97672056  0.11322035     0.12540
H3442       H  0.94052080  0.02476422  0.19105825     0.12540
H3443       H  0.89607470  0.01062436  0.21653268     0.12540
H3444       H  0.86481712  0.96462701  0.13785051     0.12540
C3445       C  0.96747899  0.87935756  0.56791706    -0.13590
C3446       C  0.98713481  0.85663606  0.56138977     0.08560
C3447       C  0.00003211  0.85642805  0.53298922    -0.13590
C3448       C  0.99393755  0.87847556  0.51228849    -0.13590
C3449       C  0.97512028  0.90189226  0.51928165     0.08560
C3450       C  0.96146705  0.90129330  0.54725321    -0.13590
H3451       H  0.95552220  0.87931718  0.58856813     0.12540
H3452       H  0.01376019  0.83821754  0.52629102     0.12540
H3453       H  0.00499700  0.87782429  0.49119298     0.12540
H3454       H  0.94697142  0.91872378  0.55389114     0.12540
C3455       C  0.89438491  0.80634582  0.56819278    -0.13590
C3456       C  0.91734760  0.78787115  0.55961580     0.08560
C3457       C  0.91725486  0.77702057  0.53006743    -0.13590
C3458       C  0.89479069  0.78423648  0.51000988    -0.13590
C3459       C  0.87108294  0.80163795  0.51906228     0.08560
C3460       C  0.87188164  0.81321919  0.54827097    -0.13590
H3461       H  0.89455120  0.81664062  0.59000811     0.12540
H3462       H  0.93553450  0.76415254  0.52209258     0.12540
H3463       H  0.89524340  0.77490774  0.48783373     0.12540
H3464       H  0.85405094  0.82642040  0.55638758     0.12540
C3465       C  0.84732423  0.00935028  0.55340697    -0.13590
C3466       C  0.84600629  0.00616536  0.58410395     0.08560
C3467       C  0.86918510  0.99276387  0.59920959    -0.13590
C3468       C  0.89308083  0.98219435  0.58382429    -0.13590
C3469       C  0.89459290  0.98547264  0.55311835     0.08560
C3470       C  0.87141396  0.99887727  0.53800416    -0.13590
H3471       H  0.82906625  0.01850265  0.54132741     0.12540
H3472       H  0.86806436  0.98891261  0.62278733     0.12540
H3473       H  0.91089590  0.97260684  0.59622035     0.12540
H3474       H  0.87220638  0.00179735  0.51439940     0.12540
C3475       C  0.80437736  0.88764011  0.58944604    -0.13590
C3476       C  0.78686260  0.88325151  0.56395728     0.08560
C3477       C  0.76577181  0.90462410  0.55721921    -0.13590
C3478       C  0.76280921  0.92991728  0.57481390    -0.13590
C3479       C  0.78104284  0.93489833  0.59951859     0.08560
C3480       C  0.80161145  0.91331564  0.60693156    -0.13590
H3481       H  0.82016422  0.87127194  0.59587610     0.12540
H3482       H  0.75122934  0.90179512  0.53833862     0.12540
H3483       H  0.74750839  0.94661980  0.56803672     0.12540
H3484       H  0.81664589  0.91710260  0.62528885     0.12540
C3485       C  0.86422850  0.25018408  0.76038410    -0.13590
C3486       C  0.86109963  0.21924011  0.76188780     0.08560
C3487       C  0.88641968  0.20226420  0.76411363    -0.13590
C3488       C  0.91383415  0.21575765  0.76494714    -0.13590
C3489       C  0.91679236  0.24662738  0.76420711     0.08560
C3490       C  0.89176396  0.26377176  0.76277263    -0.13590
H3491       H  0.84522192  0.26403470  0.75848109     0.12540
H3492       H  0.88520170  0.17861605  0.76630701     0.12540
H3493       H  0.93295425  0.20183933  0.76561429     0.12540
H3494       H  0.89357294  0.28743364  0.76254810     0.12540
C3495       C  0.80197334  0.20654438  0.86016509    -0.13590
C3496       C  0.79082696  0.22094774  0.83551430     0.08560
C3497       C  0.78384544  0.25102802  0.83793569    -0.13590
C3498       C  0.78651473  0.26598844  0.86512156    -0.13590
C3499       C  0.79664099  0.25101493  0.88984919     0.08560
C3500       C  0.80523457  0.22152547  0.88688821    -0.13590
H3501       H  0.80908239  0.18390399  0.85855802     0.12540
H3502       H  0.77619775  0.26279086  0.81877143     0.12540
H3503       H  0.77889010  0.28840031  0.86723953     0.12540
H3504       H  0.81265540  0.20941895  0.90592792     0.12540
C3505       C  0.96787410  0.15669210  0.86744341    -0.13590
C3506       C  0.98662492  0.15898180  0.89208964     0.08560
C3507       C  0.00688013  0.18213276  0.89443812    -0.13590
C3508       C  0.00832605  0.20290759  0.87234195    -0.13590
C3509       C  0.98918028  0.20121928  0.84781960     0.08560
C3510       C  0.96897268  0.17778804  0.84553256    -0.13590
H3511       H  0.95134756  0.13943038  0.86597632     0.12540
H3512       H  0.02079937  0.18463031  0.91386417     0.12540
H3513       H  0.02500495  0.21981557  0.87408327     0.12540
H3514       H  0.95464369  0.17522992  0.82643279     0.12540
C3515       C  0.89437592  0.16361913  0.94840291    -0.13590
C3516       C  0.91877737  0.16370512  0.96733240     0.08560
C3517       C  0.92302959  0.18657625  0.98805286    -0.13590
C3518       C  0.90264735  0.20907912  0.99006692    -0.13590
C3519       C  0.87851149  0.20943683  0.97058601     0.08560
C3520       C  0.87463873  0.18656038  0.94966486    -0.13590
H3521       H  0.89153712  0.14658463  0.93150655     0.12540
H3522       H  0.94246681  0.18737465  0.00195404     0.12540
H3523       H  0.90544059  0.22586419  0.00712121     0.12540
H3524       H  0.85564860  0.18565811  0.93514843     0.12540
C3525       C  0.96764414  0.58644033  0.84440026    -0.13590
C3526       C  0.98761260  0.58170945  0.82133545     0.08560
C3527       C  0.00097047  0.55389402  0.81926266    -0.13590
C3528       C  0.99530723  0.53207908  0.84031338    -0.13590
C3529       C  0.97633360  0.53742555  0.86419473     0.08560
C3530       C  0.96159320  0.56447058  0.86484919    -0.13590
H3531       H  0.95509372  0.60654786  0.84538916     0.12540
H3532       H  0.01461480  0.54858773  0.80041767     0.12540
H3533       H  0.00667520  0.51138441  0.83854851     0.12540
H3534       H  0.94626542  0.56935347  0.88220314     0.12540
C3535       C  0.90872074  0.55483193  0.75316091    -0.13590
C3536       C  0.91001763  0.58357808  0.76585295     0.08560
C3537       C  0.88929591  0.58996236  0.78793122    -0.13590
C3538       C  0.86776283  0.56901323  0.79609965    -0.13590
C3539       C  0.86610572  0.54042297  0.78307401     0.08560
C3540       C  0.88794722  0.53358599  0.76225596    -0.13590
H3541       H  0.92507925  0.54822281  0.73714754     0.12540
H3542       H  0.89026808  0.61095958  0.79960073     0.12540
H3543       H  0.85124225  0.57584410  0.81172531     0.12540
H3544       H  0.88805784  0.51207608  0.75169208     0.12540
C3545       C  0.87242003  0.62785087  0.94404161    -0.13590
C3546       C  0.85018591  0.62035013  0.96399004     0.08560
C3547       C  0.85121390  0.59280722  0.97758992    -0.13590
C3548       C  0.87370663  0.57306170  0.97117423    -0.13590
C3549       C  0.89587600  0.58030456  0.95094508     0.08560
C3550       C  0.89500167  0.60809121  0.93759201    -0.13590
H3551       H  0.87164499  0.64852083  0.93250994     0.12540
H3552       H  0.83388097  0.58615986  0.99241325     0.12540
H3553       H  0.87397214  0.55227733  0.98251776     0.12540
H3554       H  0.91210232  0.61485229  0.92256088     0.12540
C3555       C  0.78113736  0.63306165  0.88583834    -0.13590
C3556       C  0.76551270  0.62392636  0.91073431     0.08560
C3557       C  0.75269675  0.59581302  0.91085984    -0.13590
C3558       C  0.75831057  0.57600062  0.88778553    -0.13590
C3559       C  0.77699398  0.58401796  0.86458824     0.08560
C3560       C  0.78747055  0.61309044  0.86333749    -0.13590
H3561       H  0.79154759  0.65459271  0.88548782     0.12540
H3562       H  0.74106062  0.58827571  0.93017963     0.12540
H3563       H  0.74872538  0.55426054  0.88859265     0.12540
H3564       H  0.80073853  0.62049312  0.84504945     0.12540
C3565       C  0.20094578  0.86258275  0.73710647    -0.13590
C3566       C  0.18771918  0.85978638  0.76476536     0.08560
C3567       C  0.19935302  0.87716710  0.78858673    -0.13590
C3568       C  0.22364082  0.89614946  0.78498884    -0.13590
C3569       C  0.23655741  0.89943230  0.75715663     0.08560
C3570       C  0.22445387  0.88243299  0.73330434    -0.13590
H3571       H  0.19350358  0.84902149  0.71854584     0.12540
H3572       H  0.19036471  0.87486457  0.81058707     0.12540
H3573       H  0.23112011  0.90959192  0.80361893     0.12540
H3574       H  0.23210415  0.88569444  0.71102963     0.12540
C3575       C  0.21504668  0.77370536  0.83306017    -0.13590
C3576       C  0.18733746  0.78723370  0.83565979     0.08560
C3577       C  0.18290720  0.80537697  0.86067362    -0.13590
C3578       C  0.20488543  0.80937774  0.88238627    -0.13590
C3579       C  0.23219526  0.79508036  0.88050831     0.08560
C3580       C  0.23703487  0.77764545  0.85501135    -0.13590
H3581       H  0.22018154  0.76122570  0.81315267     0.12540
H3582       H  0.16286798  0.81783209  0.86265672     0.12540
H3583       H  0.19982651  0.82270601  0.90161699     0.12540
H3584       H  0.25749536  0.76607752  0.85263100     0.12540
C3585       C  0.15931063  0.96357767  0.86855186    -0.13590
C3586       C  0.17283179  0.97987473  0.89165219     0.08560
C3587       C  0.20202800  0.98915076  0.88892755    -0.13590
C3588       C  0.21696240  0.98364995  0.86278709    -0.13590
C3589       C  0.20265331  0.96936117  0.83887114     0.08560
C3590       C  0.17421401  0.95820651  0.84231766    -0.13590
H3591       H  0.13718884  0.95504302  0.87079099     0.12540
H3592       H  0.21309488  0.00085190  0.90693284     0.12540
H3593       H  0.23885480  0.99272010  0.86030175     0.12540
H3594       H  0.16259809  0.94774829  0.82390588     0.12540
C3595       C  0.15614978  0.90037299  0.95742303    -0.13590
C3596       C  0.16779180  0.92486024  0.97290516     0.08560
C3597       C  0.19550289  0.92311232  0.98618867    -0.13590
C3598       C  0.21174617  0.89750502  0.98305609    -0.13590
C3599       C  0.20075511  0.87343513  0.96643230     0.08560
C3600       C  0.17257741  0.87505501  0.95390607    -0.13590
H3601       H  0.13519229  0.90161000  0.94610151     0.12540
H3602       H  0.20523208  0.94216177  0.99730524     0.12540
H3603       H  0.23286142  0.89658211  0.99355761     0.12540
H3604       H  0.16297106  0.85665001  0.94163242     0.12540
C3605       C  0.54519855  0.85485978  0.97586761    -0.13590
C3606       C  0.57564599  0.85822623  0.97101017     0.08560
C3607       C  0.58649742  0.88570356  0.96279598    -0.13590
C3608       C  0.56755429  0.90899150  0.95881583    -0.13590
C3609       C  0.53720514  0.90590567  0.96375830     0.08560
C3610       C  0.52609030  0.87854726  0.97226384    -0.13590
H3611       H  0.53615961  0.83351628  0.98130581     0.12540
H3612       H  0.60949259  0.88875542  0.95764622     0.12540
H3613       H  0.57700946  0.93010202  0.95329565     0.12540
H3614       H  0.50309783  0.87590225  0.97756094     0.12540
C3615       C  0.55752549  0.78896078  0.88547100    -0.13590
C3616       C  0.58616922  0.80127979  0.88754356     0.08560
C3617       C  0.59579874  0.81819645  0.86376308    -0.13590
C3618       C  0.57774073  0.82207446  0.83874226    -0.13590
C3619       C  0.54916555  0.80965353  0.83664355     0.08560
C3620       C  0.53914726  0.79371910  0.86088544    -0.13590
H3621       H  0.54884298  0.77656555  0.90376728     0.12540
H3622       H  0.61700540  0.82910401  0.86483075     0.12540
H3623       H  0.58682065  0.83369056  0.82021369     0.12540
H3624       H  0.51769642  0.78334584  0.86001543     0.12540
C3625       C  0.59131137  0.01892916  0.84197647    -0.13590
C3626       C  0.61168914  0.99654091  0.83849081     0.08560
C3627       C  0.61033693  0.97171507  0.85644871    -0.13590
C3628       C  0.58904206  0.96962173  0.87833585    -0.13590
C3629       C  0.56882382  0.99238165  0.88242994     0.08560
C3630       C  0.57017289  0.01699238  0.86387407    -0.13590
H3631       H  0.59155823  0.03767189  0.82749409     0.12540
H3632       H  0.62536701  0.95368869  0.85298932     0.12540
H3633       H  0.58903481  0.95073022  0.89261589     0.12540
H3634       H  0.55568093  0.03546254  0.86699144     0.12540
C3635       C  0.59570716  0.94076548  0.73767491    -0.13590
C3636       C  0.62297361  0.94167735  0.75234118     0.08560
C3637       C  0.63311140  0.91639585  0.76616804    -0.13590
C3638       C  0.61531224  0.89154099  0.76773515    -0.13590
C3639       C  0.58734096  0.89086233  0.75440472     0.08560
C3640       C  0.57813688  0.91540205  0.73843046    -0.13590
H3641       H  0.58709399  0.96041289  0.72773166     0.12540
H3642       H  0.65365509  0.91685243  0.77837014     0.12540
H3643       H  0.62369334  0.87275234  0.77938783     0.12540
H3644       H  0.55723187  0.91522556  0.72701498     0.12540
C3645       C  0.71663898  0.28294829  0.49077642    -0.13520
C3646       C  0.69209454  0.28775235  0.48122121    -0.15080
C3647       C  0.82114412  0.23463268  0.54422162    -0.13520
C3648       C  0.84462180  0.22157628  0.54382757    -0.15080
C3649       C  0.74705560  0.31757225  0.53732260    -0.13520
C3650       C  0.74066858  0.34327120  0.54302418    -0.15080
C3651       C  0.79683561  0.20693549  0.49511696    -0.13520
C3652       C  0.80981859  0.18407200  0.48915884    -0.15080
C3653       C  0.78470654  0.29169432  0.59967319    -0.13520
C3654       C  0.78577653  0.28411537  0.57392494    -0.15080
C3655       C  0.74150254  0.23382905  0.43645422    -0.13520
C3656       C  0.74899217  0.23731420  0.46200392    -0.15080
C3657       C  0.28459825  0.64606667  0.43477143    -0.13520
C3658       C  0.27778131  0.66999195  0.44375211    -0.15080
C3659       C  0.23612135  0.80957146  0.48513280    -0.13520
C3660       C  0.24052580  0.78393500  0.47999908    -0.15080
C3661       C  0.31096482  0.70446751  0.48828033    -0.13520
C3662       C  0.33581007  0.70314318  0.49730147    -0.15080
C3663       C  0.23960296  0.70175371  0.40694360    -0.13520
C3664       C  0.23822071  0.69465778  0.38098419    -0.15080
C3665       C  0.29043928  0.76137238  0.53914167    -0.13520
C3666       C  0.28299047  0.75351978  0.51464202    -0.15080
C3667       C  0.18380755  0.76076161  0.43819197    -0.13520
C3668       C  0.20801806  0.75065838  0.43738066    -0.15080
C3669       C  0.96051871  0.54878065  0.52053836    -0.13520
C3670       C  0.98528496  0.54386236  0.51300267    -0.15080
C3671       C  0.08226061  0.48283076  0.46425484    -0.13520
C3672       C  0.10584965  0.47092650  0.46269233    -0.15080
C3673       C  0.05020665  0.45948451  0.51318234    -0.13520
C3674       C  0.05246895  0.43524630  0.52375963    -0.15080
C3675       C  0.05060728  0.54144210  0.40304503    -0.13520
C3676       C  0.05194498  0.53204199  0.42844762    -0.15080
C3677       C  0.00556260  0.58965686  0.44730488    -0.13520
C3678       C  0.01369582  0.56769089  0.45993208    -0.15080
C3679       C  0.01137298  0.49482950  0.54392019    -0.13520
C3680       C  0.00413875  0.48344386  0.56708214    -0.15080
C3681       C  0.31819425  0.48229950  0.63531797    -0.13520
C3682       C  0.32221697  0.47055187  0.61076959    -0.15080
C3683       C  0.27125934  0.52902998  0.74633950    -0.13520
C3684       C  0.26059594  0.53315024  0.77081853    -0.15080
C3685       C  0.34940993  0.53286895  0.67032950    -0.13520
C3686       C  0.37384768  0.54397062  0.67027301    -0.15080
C3687       C  0.32719464  0.58592126  0.72754160    -0.13520
C3688       C  0.31957308  0.56162913  0.71762688    -0.15080
C3689       C  0.23993499  0.48693196  0.71282558    -0.13520
C3690       C  0.21540551  0.48517321  0.72318822    -0.15080
C3691       C  0.26506721  0.42801519  0.65688388    -0.13520
C3692       C  0.27168061  0.45314264  0.66491591    -0.15080
C3693       C  0.23137208  0.22118011  0.88415068    -0.13520
C3694       C  0.23661706  0.23136300  0.90928631    -0.15080
C3695       C  0.28072482  0.27181860  0.02629849    -0.13520
C3696       C  0.29684889  0.27425652  0.04862335    -0.15080
C3697       C  0.31575621  0.23713349  0.99085164    -0.13520
C3698       C  0.33789536  0.23356541  0.00670849    -0.15080
C3699       C  0.22705035  0.30306631  0.99512798    -0.13520
C3700       C  0.21498698  0.32697669  0.99780974    -0.15080
C3701       C  0.28528086  0.20527013  0.93771857    -0.13520
C3702       C  0.29029046  0.18081426  0.92733035    -0.15080
C3703       C  0.20191126  0.27841586  0.94306862    -0.13520
C3704       C  0.17766192  0.28943937  0.93698637    -0.15080
C3705       C  0.53171800  0.80914489  0.23481419    -0.13520
C3706       C  0.52708409  0.78388692  0.24096729    -0.15080
C3707       C  0.50703187  0.63737467  0.26725256    -0.13520
C3708       C  0.50696713  0.66330211  0.26292211    -0.15080
C3709       C  0.49298113  0.75397510  0.17258560    -0.13520
C3710       C  0.49690112  0.74739859  0.19802793    -0.15080
C3711       C  0.52766560  0.69920945  0.31009994    -0.13520
C3712       C  0.53543786  0.68634604  0.33202427    -0.15080
C3713       C  0.55500201  0.75482599  0.28814972    -0.13520
C3714       C  0.57910379  0.76571141  0.28886129    -0.15080
C3715       C  0.47193794  0.69412913  0.21854819    -0.13520
C3716       C  0.44728988  0.69291047  0.20927780    -0.15080
C3717       C  0.46439770  0.26976080  0.67887339    -0.13520
C3718       C  0.47344774  0.25941427  0.70217852    -0.15080
C3719       C  0.50926654  0.21901095  0.81734787    -0.13520
C3720       C  0.51466721  0.20612262  0.83997184    -0.15080
C3721       C  0.46091881  0.20065558  0.72189925    -0.13520
C3722       C  0.43824810  0.19630913  0.70925703    -0.15080
C3723       C  0.52023669  0.32032441  0.73483396    -0.13520
C3724       C  0.51158526  0.29580455  0.74022736    -0.15080
C3725       C  0.48673305  0.17780754  0.77717946    -0.13520
C3726       C  0.48792035  0.15307952  0.78721154    -0.15080
C3727       C  0.54026436  0.26933050  0.78800886    -0.13520
C3728       C  0.56511590  0.27860990  0.78838268    -0.15080
C3729       C  0.55615462  0.92065647  0.51394644    -0.13520
C3730       C  0.54685391  0.94492314  0.50621505    -0.15080
C3731       C  0.49155988  0.04887248  0.45435304    -0.13520
C3732       C  0.48236499  0.07092451  0.44166637    -0.15080
C3733       C  0.46263236  0.01595220  0.50519941    -0.13520
C3734       C  0.43721591  0.01957819  0.51384445    -0.15080
C3735       C  0.54249089  0.02484433  0.42632591    -0.13520
C3736       C  0.54838021  0.03628500  0.40197663    -0.15080
C3737       C  0.57660388  0.97777605  0.45980626    -0.13520
C3738       C  0.60199825  0.97013870  0.45455247    -0.15080
C3739       C  0.49635139  0.97350973  0.53754005    -0.13520
C3740       C  0.48672703  0.96674345  0.56230943    -0.15080
C3741       C  0.54535122  0.53757982  0.90839460    -0.13520
C3742       C  0.53474016  0.53330431  0.93277970    -0.15080
C3743       C  0.48287798  0.48931301  0.04026213    -0.13520
C3744       C  0.47204444  0.48639523  0.06481208    -0.15080
C3745       C  0.53505766  0.45881982  0.00984343    -0.13520
C3746       C  0.54509598  0.43421243  0.01253036    -0.15080
C3747       C  0.45073467  0.53146666  0.00744670    -0.13520
C3748       C  0.42574282  0.53868839  0.01548447    -0.15080
C3749       C  0.48133083  0.56173745  0.96138052    -0.13520
C3750       C  0.47101550  0.58594142  0.95694060    -0.15080
C3751       C  0.56669613  0.48984415  0.96509268    -0.13520
C3752       C  0.59182406  0.48229353  0.95764000    -0.15080
C3753       C  0.84463327  0.52851933  0.19081202    -0.13520
C3754       C  0.82313367  0.52549858  0.20715100    -0.15080
C3755       C  0.71405966  0.47625664  0.25470690    -0.13520
C3756       C  0.69043800  0.46266210  0.25721053    -0.15080
C3757       C  0.73893776  0.45373009  0.20381903    -0.13520
C3758       C  0.72646377  0.42958532  0.20285906    -0.15080
C3759       C  0.74571537  0.52863870  0.28793719    -0.13520
C3760       C  0.73985139  0.54362738  0.31008966    -0.15080
C3761       C  0.80406407  0.48742679  0.14989481    -0.13520
C3762       C  0.78852434  0.48940466  0.17219737    -0.15080
C3763       C  0.79393226  0.58173843  0.27452316    -0.13520
C3764       C  0.79220958  0.55754192  0.26146602    -0.15080
C3765       C  0.04820012  0.93772200  0.01310839    -0.13520
C3766       C  0.04176458  0.96246919  0.00830617    -0.15080
C3767       C  0.93809241  0.03951138  0.02062120    -0.13520
C3768       C  0.96149570  0.03215709  0.01208838    -0.15080
C3769       C  0.01863679  0.01894318  0.89494768    -0.13520
C3770       C  0.01094742  0.01137057  0.91880156    -0.15080
C3771       C  0.05596061  0.98242609  0.95117688    -0.13520
C3772       C  0.08135202  0.97867278  0.94614101    -0.15080
C3773       C  0.96202874  0.06784389  0.94382987    -0.13520
C3774       C  0.96989092  0.04423593  0.95172192    -0.15080
C3775       C  0.99619072  0.99059968  0.06814291    -0.13520
C3776       C  0.00050396  0.99474178  0.04240733    -0.15080
C3777       C  0.94790512  0.22853775  0.20009795    -0.13520
C3778       C  0.92264553  0.22009216  0.19452658    -0.15080
C3779       C  0.09022746  0.27439527  0.25152897    -0.13520
C3780       C  0.06514593  0.26716340  0.24301221    -0.15080
C3781       C  0.03382374  0.30069350  0.19937387    -0.13520
C3782       C  0.04364148  0.32499251  0.19421262    -0.15080
C3783       C  0.03041130  0.22091818  0.27083286    -0.13520
C3784       C  0.03515855  0.21496227  0.29608567    -0.15080
C3785       C  0.97863920  0.19627331  0.24366696    -0.13520
C3786       C  0.96937476  0.17280175  0.25200625    -0.15080
C3787       C  0.98032688  0.27470538  0.17065897    -0.13520
C3788       C  0.97154518  0.28066005  0.14623371    -0.15080
C3789       C  0.04921715  0.72370991  0.81154518    -0.13520
C3790       C  0.04014359  0.73208958  0.78717974    -0.15080
C3791       C  0.04821771  0.83641258  0.69988209    -0.13520
C3792       C  0.03971777  0.81187504  0.70848352    -0.15080
C3793       C  0.93278089  0.72363829  0.70320168    -0.13520
C3794       C  0.95778209  0.73301643  0.71004246    -0.15080
C3795       C  0.97895990  0.67714621  0.76400316    -0.13520
C3796       C  0.98891704  0.70172332  0.75678956    -0.15080
C3797       C  0.98192591  0.79051666  0.65343453    -0.13520
C3798       C  0.98980824  0.78159412  0.67811736    -0.15080
C3799       C  0.09549077  0.79069549  0.76661314    -0.13520
C3800       C  0.07092902  0.78159058  0.75757135    -0.15080
C3801       C  0.81155216  0.76664725  0.01995943    -0.13520
C3802       C  0.83595861  0.75734818  0.02745526    -0.15080
C3803       C  0.72722857  0.83889866  0.02194663    -0.13520
C3804       C  0.71775223  0.86333699  0.02751167    -0.15080
C3805       C  0.69842894  0.80707891  0.97219321    -0.13520
C3806       C  0.67365078  0.81056776  0.96168863    -0.15080
C3807       C  0.73288217  0.76711690  0.93897081    -0.13520
C3808       C  0.72379076  0.76162227  0.91381485    -0.15080
C3809       C  0.78300091  0.73849344  0.96968432    -0.13520
C3810       C  0.79129617  0.71383731  0.96413224    -0.15080
C3811       C  0.77752831  0.80922172  0.05339203    -0.13520
C3812       C  0.78724898  0.81266860  0.07865965    -0.15080
C3813       C  0.85691845  0.07967819  0.72907184    -0.13520
C3814       C  0.83188796  0.07206864  0.73394207    -0.15080
C3815       C  0.74011016  0.07966481  0.82917894    -0.13520
C3816       C  0.75198012  0.07101722  0.80685969    -0.15080
C3817       C  0.76410618  0.98572517  0.73686228    -0.13520
C3818       C  0.75885523  0.96072824  0.72826032    -0.15080
C3819       C  0.70583086  0.00576816  0.78496554    -0.13520
C3820       C  0.72990830  0.01609547  0.78085108    -0.15080
C3821       C  0.80343074  0.00990948  0.67934319    -0.13520
C3822       C  0.80357945  0.02001566  0.70417216    -0.15080
C3823       C  0.79952494  0.12975860  0.77670891    -0.13520
C3824       C  0.79509979  0.10361197  0.77384833    -0.15080
loop_ 
_geom_bond_atom_site_label_1 
_geom_bond_atom_site_label_2 
_geom_bond_distance 
_geom_bond_site_symmetry_2 
_ccdc_geom_bond_type 
C1            C2   1.408       .  A
C1            C6   1.418       .  A
C1         C3814   1.458       .  S
C2            C3   1.412       .  A
C2         C3824   1.454       .  S
C3            C4   1.419       .  A
C3         C3816   1.454       .  S
C4            C5   1.411       .  A
C4         C3820   1.450       .  S
C5            C6   1.409       .  A
C5         C3817   1.470   1_545  S
C6         C3822   1.443       .  S
C7            C8   1.451       .  A
C7           C12   1.428       .  A
C7         C3811   1.482       .  S
C8            C9   1.436   1_554  A
C8         C3803   1.465       .  S
C9           C10   1.417       .  A
C9         C3805   1.499       .  S
C10          C11   1.440       .  A
C10        C3807   1.484       .  S
C11          C12   1.431   1_556  A
C11        C3809   1.451       .  S
C12        C3801   1.511       .  S
C13          C14   1.458       .  A
C13          C18   1.461       .  A
C13        C3792   1.513       .  S
C14          C15   1.462       .  A
C14        C3800   1.525       .  S
C15          C16   1.463       .  A
C15        C3790   1.503       .  S
C16          C17   1.453   1_455  A
C16        C3796   1.521   1_455  S
C17          C18   1.462   1_655  A
C17        C3794   1.516       .  S
C18        C3798   1.510   1_455  S
C19          C20   1.445   1_655  A
C19          C24   1.422       .  A
C19        C3787   1.447       .  S
C20          C21   1.420       .  A
C20        C3781   1.461       .  S
C21          C22   1.423       .  A
C21        C3780   1.513       .  S
C22          C23   1.428   1_455  A
C22        C3783   1.431       .  S
C23          C24   1.406       .  A
C23        C3785   1.460       .  S
C24        C3777   1.497       .  S
C25          C26   1.396   1_464  A
C25          C30   1.392   1_554  A
C25        C3776   1.440       .  S
C26          C27   1.401       .  A
C26        C3768   1.421   1_556  S
C27          C28   1.394   1_655  A
C27        C3774   1.437       .  S
C28          C29   1.397   1_545  A
C28        C3770   1.429       .  S
C29          C30   1.398       .  A
C29        C3771   1.434       .  S
C30        C3766   1.425   1_556  S
C31          C32   1.453       .  A
C31          C36   1.440       .  A
C31        C3764   1.502       .  S
C32          C33   1.431       .  A
C32        C3754   1.496       .  S
C33          C34   1.448       .  A
C33        C3762   1.496       .  S
C34          C35   1.436       .  A
C34        C3757   1.485       .  S
C35          C36   1.454       .  A
C35        C3755   1.507       .  S
C36        C3759   1.489       .  S
C37          C38   1.430       .  A
C37          C42   1.456   1_556  A
C37        C3745   1.467   1_556  S
C38          C39   1.428       .  A
C38        C3751   1.519       .  S
C39          C40   1.455       .  A
C39        C3742   1.473       .  S
C40          C41   1.429       .  A
C40        C3749   1.468       .  S
C41          C42   1.426   1_556  A
C41        C3747   1.516   1_556  S
C42        C3743   1.475       .  S
C43          C44   1.455       .  A
C43          C48   1.460   1_565  A
C43        C3737   1.493       .  S
C44          C45   1.448       .  A
C44        C3730   1.505       .  S
C45          C46   1.445   1_565  A
C45        C3739   1.515       .  S
C46          C47   1.462       .  A
C46        C3733   1.497       .  S
C47          C48   1.446       .  A
C47        C3731   1.500       .  S
C48        C3735   1.526       .  S
C49          C50   1.414       .  A
C49          C54   1.401       .  A
C49        C3719   1.458       .  S
C50          C51   1.415       .  A
C50        C3727   1.444       .  S
C51          C52   1.413       .  A
C51        C3724   1.455       .  S
C52          C53   1.429       .  A
C52        C3718   1.492       .  S
C53          C54   1.423       .  A
C53        C3721   1.424       .  S
C54        C3725   1.474       .  S
C55          C56   1.400       .  A
C55          C60   1.401       .  A
C55        C3715   1.434       .  S
C56          C57   1.399       .  A
C56        C3708   1.437       .  S
C57          C58   1.413       .  A
C57        C3711   1.458       .  S
C58          C59   1.412       .  A
C58        C3713   1.436       .  S
C59          C60   1.401       .  A
C59        C3706   1.449       .  S
C60        C3710   1.451       .  S
C61          C62   1.447       .  A
C61          C66   1.447       .  A
C61        C3703   1.521       .  S
C62          C63   1.445       .  A
C62        C3694   1.503       .  S
C63          C64   1.451       .  A
C63        C3701   1.474       .  S
C64          C65   1.430       .  A
C64        C3697   1.516       .  S
C65          C66   1.466       .  A
C65        C3695   1.510   1_556  S
C66        C3699   1.478       .  S
C67          C68   1.435       .  A
C67          C72   1.428       .  A
C67        C3692   1.482       .  S
C68          C69   1.420       .  A
C68        C3689   1.465       .  S
C69          C70   1.422       .  A
C69        C3683   1.478       .  S
C70          C71   1.434       .  A
C70        C3688   1.491       .  S
C71          C72   1.451       .  A
C71        C3685   1.463       .  S
C72        C3681   1.497       .  S
C73          C74   1.400       .  A
C73          C78   1.424       .  A
C73        C3673   1.467       .  S
C74          C75   1.420       .  A
C74        C3679   1.477       .  S
C75          C76   1.429       .  A
C75        C3670   1.442   1_455  S
C76          C77   1.415       .  A
C76        C3678   1.472       .  S
C77          C78   1.439       .  A
C77        C3676   1.488       .  S
C78        C3671   1.449       .  S
C79          C80   1.408       .  A
C79          C84   1.401       .  A
C79        C3660   1.449       .  S
C80          C81   1.409       .  A
C80        C3668   1.437       .  S
C81          C82   1.404       .  A
C81        C3663   1.458       .  S
C82          C83   1.409       .  A
C82        C3658   1.438       .  S
C83          C84   1.403       .  A
C83        C3661   1.446       .  S
C84        C3666   1.447       .  S
C85          C86   1.430       .  A
C85          C90   1.415       .  A
C85        C3651   1.486       .  S
C86          C87   1.426       .  A
C86        C3656   1.451       .  S
C87          C88   1.416       .  A
C87        C3645   1.474       .  S
C88          C89   1.427       .  A
C88        C3649   1.490       .  S
C89          C90   1.439       .  A
C89        C3654   1.446       .  S
C90        C3647   1.483       .  S
C91          C92   1.406       .  A
C91          C96   1.391       .  A
C91        C3636   1.463       .  S
C92          C93   1.408       .  A
C92          H97   1.083       .  S
C93          C94   1.402   1_565  A
C93        C3819   1.440   1_565  S
C94          C95   1.397   1_545  A
C94          H98   1.079       .  S
C95          C96   1.385       .  A
C95        C3626   1.454       .  S
C96          H99   1.087       .  S
C100        C101   1.435       .  A
C100        C105   1.412       .  A
C100       C3806   1.488       .  S
C101        C102   1.433       .  A
C101        H106   1.081       .  S
C102        C103   1.387       .  A
C102       C3616   1.507       .  S
C103        C104   1.384       .  A
C103        H107   1.084       .  S
C104        C105   1.411       .  A
C104       C3606   1.475       .  S
C105        H108   1.084       .  S
C109        C110   1.399       .  A
C109        C114   1.394       .  A
C109       C3772   1.422       .  S
C110        C111   1.399       .  A
C110        H115   1.084       .  S
C111        C112   1.393       .  A
C111       C3596   1.459       .  S
C112        C113   1.392       .  A
C112        H116   1.086       .  S
C113        C114   1.398       .  A
C113       C3586   1.460       .  S
C114        H117   1.084       .  S
C118        C119   1.432       .  A
C118        C123   1.379       .  A
C118       C3576   1.499       .  S
C119        C120   1.438       .  A
C119        H124   1.081       .  S
C120        C121   1.439       .  A
C120       C3799   1.519       .  S
C121        C122   1.433       .  A
C121        H125   1.082       .  S
C122        C123   1.380       .  A
C122       C3566   1.502       .  S
C123        H126   1.088       .  S
C127        C128   1.396       .  A
C127        C132   1.394       .  A
C127       C3556   1.455       .  S
C128        C129   1.397       .  A
C128        H133   1.085       .  S
C129        C130   1.415       .  A
C129       C3810   1.444       .  S
C130        C131   1.410       .  A
C130        H134   1.075       .  S
C131        C132   1.391       .  A
C131       C3546   1.483       .  S
C132        H135   1.086       .  S
C136        C137   1.445       .  A
C136        C141   1.424       .  A
C136       C3795   1.513       .  S
C137        C138   1.441       .  A
C137        H142   1.080       .  S
C138        C139   1.385       .  A
C138       C3536   1.518       .  S
C139        C140   1.383       .  A
C139        H143   1.086       .  S
C140        C141   1.422       .  A
C140       C3526   1.485       .  S
C141        H144   1.083   1_655  S
C145        C146   1.396       .  A
C145        C150   1.389       .  A
C145       C3506   1.452       .  S
C146        C147   1.398       .  A
C146        H151   1.081       .  S
C147        C148   1.397       .  A
C147       C3773   1.421       .  S
C148        C149   1.396       .  A
C148        H152   1.082       .  S
C149        C150   1.389       .  A
C149       C3516   1.449       .  S
C150        H153   1.087       .  S
C154        C155   1.393       .  A
C154        C159   1.414       .  A
C154       C3486   1.485       .  S
C155        C156   1.386       .  A
C155        H160   1.081       .  S
C156        C157   1.404       .  A
C156       C3496   1.466       .  S
C157        C158   1.400       .  A
C157        H161   1.085       .  S
C158        C159   1.408       .  A
C158       C3823   1.444       .  S
C159        H162   1.084       .  S
C163        C164   1.413   1_545  A
C163        C168   1.392       .  A
C163       C3821   1.437       .  S
C164        C165   1.410       .  A
C164        H169   1.076       .  S
C165        C166   1.392       .  A
C165       C3479   1.479       .  S
C166        C167   1.392   1_565  A
C166        H170   1.086       .  S
C167        C168   1.394       .  A
C167       C3466   1.455       .  S
C168        H171   1.085       .  S
C172        C173   1.426       .  A
C172        C177   1.384       .  A
C172       C3456   1.493       .  S
C173        C174   1.428       .  A
C173        H178   1.083       .  S
C174        C175   1.433       .  A
C174       C3797   1.504       .  S
C175        C176   1.430       .  A
C175        H179   1.081   1_655  S
C176        C177   1.383       .  A
C176       C3446   1.498       .  S
C177        H180   1.087       .  S
C181        C182   1.400   1_565  A
C181        C186   1.403       .  A
C181       C3775   1.426       .  S
C182        C183   1.397   1_545  A
C182        H187   1.085       .  S
C183        C184   1.392       .  A
C183       C3436   1.461   1_565  S
C184        C185   1.392       .  A
C184        H188   1.084       .  S
C185        C186   1.403       .  A
C185       C3426   1.474       .  S
C186        H189   1.084   1_655  S
C190        C191   1.413       .  A
C190        C195   1.429       .  A
C190       C3812   1.476       .  S
C191        C192   1.410       .  A
C191        H196   1.084       .  S
C192        C193   1.382       .  A
C192       C3416   1.467       .  S
C193        C194   1.384       .  A
C193        H197   1.088       .  S
C194        C195   1.424       .  A
C194       C3406   1.489       .  S
C195        H198   1.082       .  S
C199        C200   1.393       .  A
C199        C204   1.389       .  A
C199       C3386   1.451       .  S
C200        C201   1.400       .  A
C200        H205   1.083       .  S
C201        C202   1.428       .  A
C201       C3384   1.457       .  S
C202        C203   1.424       .  A
C202        H206   1.080       .  S
C203        C204   1.384       .  A
C203       C3396   1.491       .  S
C204        H207   1.087       .  S
C208        C209   1.460       .  A
C208        C213   1.390       .  A
C208       C3364   1.544       .  S
C209        C210   1.463       .  A
C209        H214   1.082       .  S
C210        C211   1.391       .  A
C210       C3698   1.501       .  S
C211        C212   1.389       .  A
C211        H215   1.087       .  S
C212        C213   1.395       .  A
C212       C3374   1.458       .  S
C213        H216   1.086       .  S
C217        C218   1.387       .  A
C217        C222   1.389   1_554  A
C217       C3344   1.448       .  S
C218        C219   1.394   1_554  A
C218        H223   1.086       .  S
C219        C220   1.442       .  A
C219       C3700   1.470       .  S
C220        C221   1.441       .  A
C220        H224   1.081       .  S
C221        C222   1.395       .  A
C221       C3354   1.508       .  S
C222        H225   1.086   1_556  S
C226        C227   1.424       .  A
C226        C231   1.389       .  A
C226       C3327   1.494       .  S
C227        C228   1.424       .  A
C227        H232   1.083       .  S
C228        C229   1.397       .  A
C228       C3782   1.452       .  S
C229        C230   1.392       .  A
C229        H233   1.085       .  S
C230        C231   1.391       .  A
C230       C3334   1.453       .  S
C231        H234   1.086       .  S
C235        C236   1.393       .  A
C235        C240   1.387       .  A
C235       C3304   1.453       .  S
C236        C237   1.393       .  A
C236        H241   1.082       .  S
C237        C238   1.402       .  A
C237       C3784   1.423       .  S
C238        C239   1.405       .  A
C238        H242   1.084       .  S
C239        C240   1.391       .  A
C239       C3314   1.456       .  S
C240        H243   1.087       .  S
C244        C245   1.435       .  A
C244        C249   1.441       .  A
C244       C3281   1.515       .  S
C245        C246   1.427       .  A
C245        H250   1.082       .  S
C246        C247   1.376       .  A
C246       C3294   1.491       .  S
C247        C248   1.378       .  A
C247        H251   1.089       .  S
C248        C249   1.434       .  A
C248       C3287   1.503       .  S
C249        H252   1.082       .  S
C253        C254   1.401       .  A
C253        C258   1.392       .  A
C253       C3262   1.471       .  S
C254        C255   1.398       .  A
C254        H259   1.084       .  S
C255        C256   1.409       .  A
C255       C3662   1.437       .  S
C256        C257   1.405       .  A
C256        H260   1.081       .  S
C257        C258   1.389       .  A
C257       C3272   1.468       .  S
C258        H261   1.084       .  S
C262        C263   1.408       .  A
C262        C267   1.397       .  A
C262       C3242   1.488       .  S
C263        C264   1.399       .  A
C263        H268   1.083       .  S
C264        C265   1.420       .  A
C264       C3686   1.460       .  S
C265        C266   1.418       .  A
C265        H269   1.083       .  S
C266        C267   1.388       .  A
C266       C3252   1.482       .  S
C267        H270   1.081       .  S
C271        C272   1.415       .  A
C271        C276   1.412       .  A
C271       C3646   1.463       .  S
C272        C273   1.416       .  A
C272        H277   1.083       .  S
C273        C274   1.388       .  A
C273       C3232   1.478       .  S
C274        C275   1.388       .  A
C274        H278   1.087       .  S
C275        C276   1.408       .  A
C275       C3222   1.472       .  S
C276        H279   1.081       .  S
C280        C281   1.381       .  A
C280        C285   1.384       .  A
C280       C3212   1.445       .  S
C281        C282   1.389       .  A
C281        H286   1.087       .  S
C282        C283   1.462       .  A
C282       C3756   1.493       .  S
C283        C284   1.462       .  A
C283        H287   1.081       .  S
C284        C285   1.400       .  A
C284       C3202   1.547       .  S
C285        H288   1.084       .  S
C289        C290   1.415       .  A
C289        C294   1.424       .  A
C289       C3650   1.479       .  S
C290        C291   1.416       .  A
C290        H295   1.083       .  S
C291        C292   1.387       .  A
C291       C3192   1.480       .  S
C292        C293   1.388       .  A
C292        H296   1.085       .  S
C293        C294   1.425       .  A
C293       C3182   1.493       .  S
C294        H297   1.083       .  S
C298        C299   1.400       .  A
C298        C303   1.416       .  A
C298       C3723   1.442       .  S
C299        C300   1.393       .  A
C299        H304   1.082       .  S
C300        C301   1.386       .  A
C300       C3172   1.450       .  S
C301        C302   1.384       .  A
C301        H305   1.088       .  S
C302        C303   1.409       .  A
C302       C3162   1.471       .  S
C303        H306   1.080       .  S
C307        C308   1.383       .  A
C307        C312   1.388       .  A
C307       C3142   1.444       .  S
C308        C309   1.387       .  A
C308        H313   1.086       .  S
C309        C310   1.410       .  A
C309       C3657   1.425       .  S
C310        C311   1.419       .  A
C310        H314   1.082       .  S
C311        C312   1.396       .  A
C311       C3152   1.492       .  S
C312        H315   1.081       .  S
C316        C317   1.397       .  A
C316        C321   1.415       .  A
C316       C3122   1.470       .  S
C317        C318   1.386       .  A
C317        H322   1.084       .  S
C318        C319   1.389       .  A
C318       C3132   1.451       .  S
C319        C320   1.382       .  A
C319        H323   1.086       .  S
C320        C321   1.403       .  A
C320       C3707   1.424       .  S
C321        H324   1.084       .  S
C325        C326   1.433       .  A
C325        C330   1.399       .  A
C325       C3102   1.516       .  S
C326        C327   1.426       .  A
C326        H331   1.082       .  S
C327        C328   1.384       .  A
C327       C3712   1.440       .  S
C328        C329   1.371       .  A
C328        H332   1.088       .  S
C329        C330   1.398       .  A
C329       C3112   1.444       .  S
C330        H333   1.082       .  S
C334        C335   1.386       .  A
C334        C339   1.396       .  A
C334       C3082   1.460       .  S
C335        C336   1.390       .  A
C335        H340   1.086       .  S
C336        C337   1.449       .  A
C336       C3760   1.477       .  S
C337        C338   1.448       .  A
C337        H341   1.081       .  S
C338        C339   1.396       .  A
C338       C3092   1.539       .  S
C339        H342   1.082       .  S
C343        C344   1.405       .  A
C343        C348   1.390       .  A
C343       C3072   1.462       .  S
C344        C345   1.410       .  A
C344        H349   1.082       .  S
C345        C346   1.430       .  A
C345       C3717   1.480       .  S
C346        C347   1.420       .  A
C346        H350   1.053       .  S
C347        C348   1.380       .  A
C347       C3062   1.494       .  S
C348        H351   1.087       .  S
C352        C353   1.406       .  A
C352        C357   1.383       .  A
C352       C3052   1.465       .  S
C353        C354   1.407       .  A
C353        H358   1.084       .  S
C354        C355   1.442       .  A
C354       C3682   1.490       .  S
C355        C356   1.440       .  A
C355        H359   1.082       .  S
C356        C357   1.391       .  A
C356       C3042   1.514       .  S
C357        H360   1.087       .  S
C361        C362   1.420       .  A
C361        C366   1.397       .  A
C361       C3032   1.482       .  S
C362        C363   1.421       .  A
C362        H367   1.081       .  S
C363        C364   1.391       .  A
C363       C3672   1.446       .  S
C364        C365   1.393       .  A
C364        H368   1.086       .  S
C365        C366   1.389       .  A
C365       C3022   1.464       .  S
C366        H369   1.086       .  S
C370        C371   1.417       .  A
C370        C375   1.391       .  A
C370       C3012   1.489       .  S
C371        C372   1.425       .  A
C371        H376   1.081       .  S
C372        C373   1.438       .  A
C372       C3779   1.502       .  S
C373        C374   1.433       .  A
C373        H377   1.083       .  S
C374        C375   1.386       .  A
C374       C3002   1.509       .  S
C375        H378   1.087       .  S
C379        C380   1.439       .  A
C379        C384   1.392       .  A
C379       C2992   1.510       .  S
C380        C381   1.437       .  A
C380        H385   1.082       .  S
C381        C382   1.390       .  A
C381       C3744   1.467       .  S
C382        C383   1.387       .  A
C382        H386   1.086       .  S
C383        C384   1.388       .  A
C383       C2982   1.445       .  S
C384        H387   1.086       .  S
C388        C389   1.385       .  A
C388        C393   1.397       .  A
C388       C2972   1.462       .  S
C389        C390   1.388       .  A
C389        H394   1.087       .  S
C390        C391   1.464       .  A
C390       C3696   1.498       .  S
C391        C392   1.460       .  A
C391        H395   1.082       .  S
C392        C393   1.389       .  A
C392       C2962   1.546       .  S
C393        H396   1.084       .  S
C397        C398   1.385       .  A
C397        C402   1.455       .  A
C397       C2942   1.533       .  S
C398        C399   1.385       .  A
C398        H403   1.088       .  S
C399        C400   1.395       .  A
C399       C2955   1.452       .  S
C400        C401   1.400       .  A
C400        H404   1.084       .  S
C401        C402   1.459       .  A
C401       C2940   1.502       .  S
C402        H405   1.081       .  S
C406        C407   1.441       .  A
C406        C411   1.384       .  A
C406       C2930   1.514       .  S
C407        C408   1.445       .  A
C407        H412   1.080       .  S
C408        C409   1.407       .  A
C408       C3732   1.492       .  S
C409        C410   1.400       .  A
C409        H413   1.082       .  S
C410        C411   1.389       .  A
C410       C2923   1.459       .  S
C411        H414   1.088       .  S
C415        C416   1.391       .  A
C415        C420   1.389       .  A
C415       C2900   1.449       .  S
C416        C417   1.394       .  A
C416        H421   1.086       .  S
C417        C418   1.435       .  A
C417       C3691   1.470       .  S
C418        C419   1.436       .  A
C418        H422   1.082       .  S
C419        C420   1.391       .  A
C419       C2910   1.504       .  S
C420        H423   1.086       .  S
C424        C425   1.393       .  A
C424        C429   1.426       .  A
C424       C3674   1.448       .  S
C425        C426   1.388       .  A
C425        H430   1.083       .  S
C426        C427   1.381       .  A
C426       C2890   1.451       .  S
C427        C428   1.388       .  A
C427        H431   1.086       .  S
C428        C429   1.427       .  A
C428       C2880   1.490       .  S
C429        H432   1.083       .  S
C433        C434   1.399       .  A
C433        C438   1.443       .  A
C433       C3734   1.488       .  S
C434        C435   1.399       .  A
C434        H439   1.083       .  S
C435        C436   1.391       .  A
C435       C2870   1.466       .  S
C436        C437   1.393       .  A
C436        H440   1.085       .  S
C437        C438   1.443       .  A
C437       C2863   1.522       .  S
C438        H441   1.081       .  S
C442        C443   1.395       .  A
C442        C447   1.392       .  A
C442       C3722   1.418       .  S
C443        C444   1.410       .  A
C443        H448   1.084       .  S
C444        C445   1.398       .  A
C444       C2850   1.467       .  S
C445        C446   1.387       .  A
C445        H449   1.085       .  S
C446        C447   1.394       .  A
C446       C2840   1.452       .  S
C447        H450   1.085       .  S
C451        C452   1.417       .  A
C451        C456   1.394       .  A
C451       C3664   1.447       .  S
C452        C453   1.425       .  A
C452        H457   1.083       .  S
C453        C454   1.400       .  A
C453       C2830   1.497       .  S
C454        C455   1.392       .  A
C454        H458   1.084       .  S
C455        C456   1.391       .  A
C455       C2820   1.453       .  S
C456        H459   1.086       .  S
C460        C461   1.395       .  A
C460        C465   1.443       .  A
C460       C3675   1.480       .  S
C461        C462   1.392       .  A
C461        H466   1.085       .  S
C462        C463   1.390       .  A
C462       C2810   1.455       .  S
C463        C464   1.402       .  A
C463        H467   1.084       .  S
C464        C465   1.445       .  A
C464       C2800   1.528       .  S
C465        H468   1.082       .  S
C469        C470   1.452       .  A
C469        C474   1.419       .  A
C469       C3736   1.518       .  S
C470        C471   1.447       .  A
C470        H475   1.078       .  S
C471        C472   1.379       .  A
C471       C2790   1.523       .  S
C472        C473   1.383       .  A
C472        H476   1.087       .  S
C473        C474   1.417       .  A
C473       C2780   1.479       .  S
C474        H477   1.083       .  S
C478        C479   1.392       .  A
C478        C483   1.411       .  A
C478       C2770   1.477       .  S
C479        C480   1.390       .  A
C479        H484   1.087       .  S
C480        C481   1.398       .  A
C480       C2763   1.457       .  S
C481        C482   1.398       .  A
C481        H485   1.084       .  S
C482        C483   1.413       .  A
C482       C3655   1.444       .  S
C483        H486   1.079       .  S
C487        C488   1.430       .  A
C487        C492   1.380       .  A
C487       C2750   1.496       .  S
C488        C489   1.434       .  A
C488        H493   1.083       .  S
C489        C490   1.429       .  A
C489       C3748   1.502       .  S
C490        C491   1.423       .  A
C490        H494   1.082   1_554  S
C491        C492   1.381       .  A
C491       C2740   1.486       .  S
C492        H495   1.088       .  S
C496        C497   1.394       .  A
C496        C501   1.402       .  A
C496       C3716   1.428       .  S
C497        C498   1.396       .  A
C497        H502   1.085       .  S
C498        C499   1.385       .  A
C498       C2730   1.447       .  S
C499        C500   1.395       .  A
C499        H503   1.086       .  S
C500        C501   1.402       .  A
C500       C2723   1.463       .  S
C501        H504   1.079       .  S
C505        C506   1.395       .  A
C505        C510   1.431       .  A
C505       C3746   1.461       .  S
C506        C507   1.393       .  A
C506        H511   1.085       .  S
C507        C508   1.394       .  A
C507       C2710   1.462       .  S
C508        C509   1.390       .  A
C508        H512   1.086       .  S
C509        C510   1.429       .  A
C509       C2700   1.499       .  S
C510        H513   1.081       .  S
C514        C515   1.397       .  A
C514        C519   1.391       .  A
C514       C2680   1.483       .  S
C515        C516   1.405       .  A
C515        H520   1.085       .  S
C516        C517   1.447       .  A
C516       C3758   1.477       .  S
C517        C518   1.444       .  A
C517        H521   1.082       .  S
C518        C519   1.399       .  A
C518       C2690   1.511       .  S
C519        H522   1.085       .  S
C523        C524   1.405       .  A
C523        C528   1.384       .  A
C523       C2670   1.469       .  S
C524        C525   1.407       .  A
C524        H529   1.084       .  S
C525        C526   1.444       .  A
C525       C3693   1.493       .  S
C526        C527   1.442       .  A
C526        H530   1.081       .  S
C527        C528   1.388       .  A
C527       C2660   1.522       .  S
C528        H531   1.083       .  S
C532        C533   1.389       .  A
C532        C537   1.392       .  A
C532       C2640   1.449       .  S
C533        C534   1.395       .  A
C533        H538   1.085   1_545  S
C534        C535   1.400       .  A
C534       C3769   1.413       .  S
C535        C536   1.397       .  A
C535        H539   1.082       .  S
C536        C537   1.388       .  A
C536       C2650   1.459       .  S
C537        H540   1.086       .  S
C541        C542   1.379       .  A
C541        C546   1.438       .  A
C541       C2630   1.510       .  S
C542        C543   1.380       .  A
C542        H547   1.086       .  S
C543        C544   1.428       .  A
C543       C2620   1.497       .  S
C544        C545   1.433       .  A
C544        H548   1.080       .  S
C545        C546   1.443       .  A
C545       C2617   1.520       .  S
C546        H549   1.082       .  S
C550        C551   1.403       .  A
C550        C555   1.389       .  A
C550       C2608   1.464       .  S
C551        C552   1.406       .  A
C551        H556   1.080       .  S
C552        C553   1.400       .  A
C552       C3709   1.438       .  S
C553        C554   1.399       .  A
C553        H557   1.083       .  S
C554        C555   1.391       .  A
C554       C2598   1.457       .  S
C555        H558   1.087       .  S
C559        C560   1.413       .  A
C559        C564   1.380       .  A
C559       C2588   1.476       .  S
C560        C561   1.420       .  A
C560        H565   1.083       .  S
C561        C562   1.433       .  A
C561       C3778   1.485       .  S
C562        C563   1.428       .  A
C562        H566   1.082       .  S
C563        C564   1.382       .  A
C563       C2578   1.495       .  S
C564        H567   1.087       .  S
C568        C569   1.395       .  A
C568        C573   1.397       .  A
C568       C2558   1.445       .  S
C569        C570   1.394       .  A
C569        H574   1.085   1_545  S
C570        C571   1.390       .  A
C570       C3767   1.408       .  S
C571        C572   1.391       .  A
C571        H575   1.083       .  S
C572        C573   1.387       .  A
C572       C2568   1.443       .  S
C573        H576   1.086       .  S
C577        C578   1.416       .  A
C577        C582   1.383       .  A
C577       C2548   1.481       .  S
C578        C579   1.417       .  A
C578        H583   1.083       .  S
C579        C580   1.448       .  A
C579       C3704   1.510       .  S
C580        C581   1.447       .  A
C580        H584   1.080       .  S
C581        C582   1.393       .  A
C581       C2538   1.532       .  S
C582        H585   1.082       .  S
C586        C587   1.423       .  A
C586        C591   1.386       .  A
C586       C2518   1.498       .  S
C587        C588   1.429       .  A
C587        H592   1.076       .  S
C588        C589   1.394       .  A
C588       C3690   1.456       .  S
C589        C590   1.390       .  A
C589        H593   1.085       .  S
C590        C591   1.394       .  A
C590       C2528   1.447       .  S
C591        H594   1.087       .  S
C595        C596   1.418       .  A
C595        C600   1.384       .  A
C595       C2511   1.483       .  S
C596        C597   1.419       .  A
C596        H601   1.083       .  S
C597        C598   1.398       .  A
C597       C3786   1.445       .  S
C598        C599   1.394       .  A
C598        H602   1.085   1_655  S
C599        C600   1.389       .  A
C599       C2498   1.451       .  S
C600        H603   1.086       .  S
C604        C605   1.446       .  A
C604        C609   1.382       .  A
C604       C2481   1.517       .  S
C605        C606   1.449       .  A
C605        H610   1.081       .  S
C606        C607   1.386       .  A
C606       C3652   1.467       .  S
C607        C608   1.373       .  A
C607        H611   1.087       .  S
C608        C609   1.386       .  A
C608       C2488   1.426       .  S
C609        H612   1.087       .  S
C613        C614   1.451       .  A
C613        C618   1.392       .  A
C613       C2468   1.531       .  S
C614        C615   1.454       .  A
C614        H619   1.082       .  S
C615        C616   1.388       .  A
C615       C3761   1.482       .  S
C616        C617   1.381       .  A
C616        H620   1.087       .  S
C617        C618   1.399       .  A
C617       C2458   1.465       .  S
C618        H621   1.084       .  S
C622        C623   1.422       .  A
C622        C627   1.393       .  A
C622       C2438   1.492       .  S
C623        C624   1.416       .  A
C623        H628   1.083       .  S
C624        C625   1.393       .  A
C624       C3788   1.440       .  S
C625        C626   1.389       .  A
C625        H629   1.085   1_655  S
C626        C627   1.391       .  A
C626       C2448   1.448       .  S
C627        H630   1.084       .  S
C631        C632   1.436       .  A
C631        C636   1.397       .  A
C631       C2418   1.503       .  S
C632        C633   1.431       .  A
C632        H637   1.083       .  S
C633        C634   1.389       .  A
C633       C3726   1.460       .  S
C634        C635   1.390       .  A
C634        H638   1.086       .  S
C635        C636   1.383       .  A
C635       C2428   1.459       .  S
C636        H639   1.084       .  S
C640        C641   1.391       .  A
C640        C645   1.388       .  A
C640       C2398   1.444       .  S
C641        C642   1.397       .  A
C641        H646   1.086       .  S
C642        C643   1.434       .  A
C642       C3702   1.465       .  S
C643        C644   1.432       .  A
C643        H647   1.082       .  S
C644        C645   1.387       .  A
C644       C2408   1.499       .  S
C645        H648   1.087       .  S
C649        C650   1.397       .  A
C649        C654   1.385       .  A
C649       C2388   1.453       .  S
C650        C651   1.392       .  A
C650        H655   1.085       .  S
C651        C652   1.408       .  A
C651       C3667   1.432       .  S
C652        C653   1.407       .  A
C652        H656   1.080       .  S
C653        C654   1.395       .  A
C653       C2378   1.468       .  S
C654        H657   1.087       .  S
C658        C659   1.429       .  A
C658        C663   1.420       .  A
C658       C2355   1.474       .  S
C659        C660   1.421       .  A
C659        H664   1.083       .  S
C660        C661   1.377       .  A
C660       C2368   1.484       .  S
C661        C662   1.375       .  A
C661        H665   1.089       .  S
C662        C663   1.410       .  A
C662       C2358   1.468       .  S
C663        H666   1.082       .  S
C667        C668   1.386       .  A
C667        C672   1.418       .  A
C667       C2336   1.483       .  S
C668        C669   1.386       .  A
C668        H673   1.085       .  S
C669        C670   1.430       .  A
C669       C2346   1.499       .  S
C670        C671   1.431       .  A
C670        H674   1.082       .  S
C671        C672   1.418       .  A
C671       C2333   1.493       .  S
C672        H675   1.084       .  S
C676        C677   1.393       .  A
C676        C681   1.390       .  A
C676       C2314   1.446       .  S
C677        C678   1.392       .  A
C677        H682   1.085       .  S
C678        C679   1.394   1_554  A
C678       C3765   1.414       .  S
C679        C680   1.399       .  A
C679        H683   1.084       .  S
C680        C681   1.396   1_556  A
C680       C2327   1.463       .  S
C681        H684   1.086       .  S
C685        C686   1.391       .  A
C685        C690   1.420       .  A
C685       C3813   1.446       .  S
C686        C687   1.386       .  A
C686        H691   1.086       .  S
C687        C688   1.395       .  A
C687       C2304   1.450       .  S
C688        C689   1.395       .  A
C688        H692   1.086       .  S
C689        C690   1.425       .  A
C689       C2294   1.493       .  S
C690        H693   1.083       .  S
C694        C695   1.438       .  A
C694        C699   1.400       .  A
C694       C2284   1.512       .  S
C695        C696   1.441       .  A
C695        H700   1.082       .  S
C696        C697   1.402       .  A
C696       C3648   1.474       .  S
C697        C698   1.396       .  A
C697        H701   1.086       .  S
C698        C699   1.393       .  A
C698       C2274   1.478       .  S
C699        H702   1.085       .  S
C703        C704   1.395       .  A
C703        C708   1.431   1_655  A
C703       C3680   1.461   1_655  S
C704        C705   1.386       .  A
C704        H709   1.075       .  S
C705        C706   1.385       .  A
C705       C2264   1.445       .  S
C706        C707   1.384       .  A
C706        H710   1.087       .  S
C707        C708   1.431   1_655  A
C707       C2257   1.491       .  S
C708        H711   1.083       .  S
C712        C713   1.424       .  A
C712        C717   1.399       .  A
C712       C2244   1.488       .  S
C713        C714   1.418       .  A
C713        H718   1.084       .  S
C714        C715   1.397       .  A
C714       C3653   1.443       .  S
C715        C716   1.395       .  A
C715        H719   1.085       .  S
C716        C717   1.394       .  A
C716       C2234   1.496       .  S
C717        H720   1.080       .  S
C721        C722   1.390       .  A
C721        C726   1.402       .  A
C721       C2224   1.467       .  S
C722        C723   1.394       .  A
C722        H727   1.087       .  S
C723        C724   1.399       .  A
C723       C2214   1.459       .  S
C724        C725   1.401       .  A
C724        H728   1.085       .  S
C725        C726   1.405       .  A
C725       C3659   1.435       .  S
C726        H729   1.080       .  S
C730        C731   1.431       .  A
C730        C735   1.386       .  A
C730       C2194   1.505       .  S
C731        C732   1.433       .  A
C731        H736   1.082       .  S
C732        C733   1.431       .  A
C732       C3791   1.506       .  S
C733        C734   1.428       .  A
C733        H737   1.081       .  S
C734        C735   1.382       .  A
C734       C2204   1.499       .  S
C735        H738   1.083       .  S
C739        C740   1.400       .  A
C739        C744   1.391       .  A
C739       C2184   1.461       .  S
C740        C741   1.401       .  A
C740        H745   1.084       .  S
C741        C742   1.405       .  A
C741       C3665   1.434       .  S
C742        C743   1.400       .  A
C742        H746   1.081       .  S
C743        C744   1.387       .  A
C743       C2174   1.461       .  S
C744        H747   1.087       .  S
C748        C749   1.426       .  A
C748        C753   1.382       .  A
C748       C2154   1.488       .  S
C749        C750   1.429       .  A
C749        H754   1.083       .  S
C750        C751   1.435       .  A
C750       C3740   1.507       .  S
C751        C752   1.430       .  A
C751        H755   1.081       .  S
C752        C753   1.382       .  A
C752       C2164   1.496       .  S
C753        H756   1.088       .  S
C757        C758   1.433       .  A
C757        C762   1.400       .  A
C757       C2144   1.519       .  S
C758        C759   1.428       .  A
C758        H763   1.081       .  S
C759        C760   1.384       .  A
C759       C3720   1.441       .  S
C760        C761   1.373       .  A
C760        H764   1.088       .  S
C761        C762   1.391       .  A
C761       C2134   1.443       .  S
C762        H765   1.080       .  S
C766        C767   1.416       .  A
C766        C771   1.384       .  A
C766       C2117   1.480       .  S
C767        C768   1.417       .  A
C767        H772   1.083       .  S
C768        C769   1.401       .  A
C768       C3815   1.443       .  S
C769        C770   1.391       .  A
C769        H773   1.079       .  S
C770        C771   1.385       .  A
C770       C2124   1.452       .  S
C771        H774   1.086       .  S
C775        C776   1.409       .  A
C775        C780   1.392       .  A
C775       C2094   1.479       .  S
C776        C777   1.411       .  A
C776        H781   1.073       .  S
C777        C778   1.393       .  A
C777       C3728   1.439       .  S
C778        C779   1.395       .  A
C778        H782   1.085       .  S
C779        C780   1.388       .  A
C779       C2104   1.446       .  S
C780        H783   1.087       .  S
C784        C785   1.430       .  A
C784        C789   1.432       .  A
C784       C3752   1.506       .  S
C785        C786   1.427       .  A
C785        H790   1.081       .  S
C786        C787   1.382       .  A
C786       C2084   1.492       .  S
C787        C788   1.383       .  A
C787        H791   1.088       .  S
C788        C789   1.429       .  A
C788       C2074   1.496       .  S
C789        H792   1.081       .  S
C793        C794   1.433       .  A
C793        C798   1.391       .  A
C793       C2054   1.508       .  S
C794        C795   1.434       .  A
C794        H799   1.081       .  S
C795        C796   1.397       .  A
C795       C3741   1.465       .  S
C796        C797   1.394       .  A
C796        H800   1.085       .  S
C797        C798   1.392       .  A
C797       C2064   1.461       .  S
C798        H801   1.085       .  S
C802        C803   1.439       .  A
C802        C807   1.394       .  A
C802       C3808   1.471       .  S
C803        C804   1.438       .  A
C803        H808   1.081       .  S
C804        C805   1.387       .  A
C804       C2044   1.508       .  S
C805        C806   1.389       .  A
C805        H809   1.087       .  S
C806        C807   1.390       .  A
C806       C2034   1.449       .  S
C807        H810   1.086       .  S
C811        C812   1.404       .  A
C811        C816   1.392       .  A
C811       C2024   1.462       .  S
C812        C813   1.404       .  A
C812        H817   1.077       .  S
C813        C814   1.397       .  A
C813       C3669   1.436       .  S
C814        C815   1.398       .  A
C814        H818   1.081       .  S
C815        C816   1.388       .  A
C815       C2014   1.455       .  S
C816        H819   1.087       .  S
C820        C821   1.442       .  A
C820        C825   1.427       .  A
C820       C3793   1.510       .  S
C821        C822   1.438       .  A
C821        H826   1.081       .  S
C822        C823   1.380       .  A
C822       C2004   1.509       .  S
C823        C824   1.380       .  A
C823        H827   1.087       .  S
C824        C825   1.420       .  A
C824       C1994   1.483       .  S
C825        H828   1.083       .  S
C829        C830   1.424       .  A
C829        C834   1.382       .  A
C829       C1984   1.484       .  S
C830        C831   1.425       .  A
C830        H835   1.083       .  S
C831        C832   1.432       .  A
C831       C3789   1.497       .  S
C832        C833   1.427       .  A
C832        H836   1.081       .  S
C833        C834   1.381       .  A
C833       C1974   1.492       .  S
C834        H837   1.088       .  S
C838        C839   1.398       .  A
C838        C843   1.389       .  A
C838       C1954   1.454       .  S
C839        C840   1.404       .  A
C839        H844   1.083       .  S
C840        C841   1.429       .  A
C840       C3684   1.466       .  S
C841        C842   1.421       .  A
C841        H845   1.076       .  S
C842        C843   1.384       .  A
C842       C1964   1.493       .  S
C843        H846   1.088       .  S
C847        C848   1.393       .  A
C847        C852   1.432       .  A
C847       C3750   1.460       .  S
C848        C849   1.389       .  A
C848        H853   1.086       .  S
C849        C850   1.390       .  A
C849       C1944   1.451       .  S
C850        C851   1.394       .  A
C850        H854   1.085       .  S
C851        C852   1.433       .  A
C851       C1934   1.509       .  S
C852        H855   1.082       .  S
C856        C857   1.435       .  A
C856        C861   1.404       .  A
C856       C3687   1.478       .  S
C857        C858   1.435       .  A
C857        H862   1.083       .  S
C858        C859   1.388       .  A
C858       C1924   1.506       .  S
C859        C860   1.388       .  A
C859        H863   1.087       .  S
C860        C861   1.399       .  A
C860       C1914   1.460       .  S
C861        H864   1.084       .  S
C865        C866   1.431       .  A
C865        C870   1.383       .  A
C865       C1894   1.498       .  S
C866        C867   1.434       .  A
C866        H871   1.082       .  S
C867        C868   1.422       .  A
C867       C3729   1.497       .  S
C868        C869   1.420       .  A
C868        H872   1.083       .  S
C869        C870   1.385       .  A
C869       C1904   1.486       .  S
C870        H873   1.087       .  S
C874        C875   1.413       .  A
C874        C879   1.386       .  A
C874       C1874   1.477       .  S
C875        C876   1.420       .  A
C875        H880   1.079       .  S
C876        C877   1.405       .  A
C876       C3818   1.455       .  S
C877        C878   1.399       .  A
C877        H881   1.083       .  S
C878        C879   1.388       .  A
C878       C1884   1.457       .  S
C879        H882   1.088       .  S
C883        C884   1.401       .  A
C883        C888   1.385       .  A
C883       C1864   1.461       .  S
C884        C885   1.408       .  A
C884        H889   1.080       .  S
C885        C886   1.403       .  A
C885       C3705   1.434       .  S
C886        C887   1.395       .  A
C886        H890   1.083       .  S
C887        C888   1.391       .  A
C887       C1854   1.453       .  S
C888        H891   1.087       .  S
C892        C893   1.421       .  A
C892        C897   1.388       .  A
C892       C1834   1.483       .  S
C893        C894   1.421       .  A
C893        H898   1.083       .  S
C894        C895   1.404       .  A
C894       C3804   1.460       .  S
C895        C896   1.407       .  A
C895        H899   1.084       .  S
C896        C897   1.388       .  A
C896       C1844   1.474       .  S
C897        H900   1.085       .  S
C901        C902   1.433       .  A
C901        C906   1.416       .  A
C901       C3738   1.488       .  S
C902        C903   1.432       .  A
C902        H907   1.082       .  S
C903        C904   1.386       .  A
C903       C1824   1.503       .  S
C904        C905   1.384       .  A
C904        H908   1.086       .  S
C905        C906   1.412       .  A
C905       C1814   1.472       .  S
C906        H909   1.084       .  S
C910        C911   1.391       .  A
C910        C915   1.408       .  A
C910       C3714   1.433       .  S
C911        C912   1.397       .  A
C911        H916   1.085       .  S
C912        C913   1.389       .  A
C912       C1807   1.458       .  S
C913        C914   1.394       .  A
C913        H917   1.086       .  S
C914        C915   1.407       .  A
C914       C1794   1.474       .  S
C915        H918   1.076       .  S
C919        C920   1.454       .  A
C919        C924   1.387       .  A
C919       C1774   1.531       .  S
C920        C921   1.457       .  A
C920        H925   1.082       .  S
C921        C922   1.383       .  A
C921       C3753   1.483       .  S
C922        C923   1.380       .  A
C922        H926   1.088       .  S
C923        C924   1.397       .  A
C923       C1784   1.452       .  S
C924        H927   1.085       .  S
C928        C929   1.409       .  A
C928        C933   1.385       .  A
C928       C1754   1.476   1_554  S
C929        C930   1.415       .  A
C929        H934   1.077   1_554  S
C930        C931   1.440       .  A
C930       C3802   1.498       .  S
C931        C932   1.439       .  A
C931        H935   1.082       .  S
C932        C933   1.387       .  A
C932       C1764   1.511       .  S
C933        H936   1.086       .  S
C937        C938   1.457       .  A
C937        C942   1.399       .  A
C937       C3763   1.491       .  S
C938        C939   1.453       .  A
C938        H943   1.081       .  S
C939        C940   1.396       .  A
C939       C1734   1.532       .  S
C940        C941   1.387       .  A
C940        H944   1.086       .  S
C941        C942   1.393       .  A
C941       C1744   1.467       .  S
C942        H945   1.085       .  S
C946        C947   1.374       .  A
C946        C951   1.393       .  A
C946       C1714   1.442       .  S
C947        C948   1.388       .  A
C947        H952   1.084       .  S
C948        C949   1.436       .  A
C948       C3677   1.453   1_655  S
C949        C950   1.436       .  A
C949        H953   1.082   1_655  S
C950        C951   1.391       .  A
C950       C1724   1.513       .  S
C951        H954   1.085       .  S
O955        C982   1.262       .  A
O955       Mn981   2.061       .  S
C956       C2317   1.458       .  S
C956        O989   1.264       .  A
C956        O986   1.260   1_455  A
O957       Mn964   2.203       .  S
O957       Mn975   2.069       .  S
O957       Mn979   2.197   1_455  S
O957       Mn981   2.088       .  S
O958        C968   1.262   1_455  A
O958       Mn992   2.043       .  S
O959        C982   1.262       .  A
O959       Mn975   2.047       .  S
O960        C987   1.272       .  A
O960       Mn979   2.237       .  S
O961       Mn992   1.895       .  S
O961       Mn981   1.905       .  S
O961        C977   1.194       .  S
C962       C3409   1.483       .  S
C962        O965   1.273       .  A
C962        O988   1.198       .  S
O963       Mn983   1.999       .  S
O963       Mn964   2.182   1_655  S
O963       Mn997   2.113       .  S
O963       Mn979   2.146       .  S
Mn964       O993   2.271       .  S
Mn964       O969   2.234       .  S
Mn964       O996   2.177       .  S
Mn964       O970   2.236       .  S
O965       Mn979   2.201       .  S
O966        C968   1.271       .  A
O966       Mn973   2.086       .  S
C967       C1767   1.501       .  S
C967        O993   1.264   1_655  A
C967        O980   1.176       .  S
C968       C3429   1.448       .  S
O969        C994   1.276       .  A
O970       Mn973   2.088   1_455  S
O970       Mn992   2.047       .  S
O970       Mn979   2.210   1_455  S
O971       Mn975   1.937       .  S
O971       Mn997   1.934   1_455  S
O971        C994   1.195       .  S
C972       C1747   1.433       .  S
C972        O998   1.263       .  A
C972        O974   1.269       .  A
Mn973       O986   2.052       .  S
Mn973       O988   1.924       .  S
Mn973       O980   1.863       .  S
O974       Mn997   2.077       .  S
Mn975       O991   2.074       .  S
Mn975       O985   1.899   1_455  S
O976        C978   1.262       .  A
O976       Mn981   2.044       .  S
C977       C2371   1.471       .  S
C977        O995   1.263   1_455  A
C978       C2823   1.458       .  S
C978        O991   1.272       .  A
Mn979       O995   2.188       .  S
O980       Mn983   1.868       .  S
Mn981       O999   1.907       .  S
C982       C2391   1.444       .  S
Mn983       O990   2.038       .  S
Mn983       O998   2.041       .  S
Mn983       O988   1.927       .  S
C984       C1787   1.443       .  S
C984        O990   1.243       .  A
C984       O1000   1.263       .  A
O985       Mn997   1.903       .  S
O985        C987   1.190       .  S
C987       C1727   1.500       .  S
O989       Mn992   2.064       .  S
Mn992       O999   1.907       .  S
C994       C2803   1.503       .  S
O996       C1001   1.260       .  A
Mn997      O1000   2.094       .  S
O999       C1001   1.198       .  S
C1001      C2339   1.471       .  S
O1002      C1029   1.269       .  A
O1002     Mn1028   2.083       .  S
C1003      C3476   1.488       .  S
C1003      O1036   1.272       .  A
C1003      O1033   1.261       .  A
O1004     Mn1011   2.182       .  S
O1004     Mn1022   2.082       .  S
O1004     Mn1026   2.213       .  S
O1004     Mn1028   2.087       .  S
O1005      C1015   1.267       .  A
O1005     Mn1039   2.069       .  S
O1006      C1029   1.258       .  A
O1006     Mn1022   2.037       .  S
O1007      C1034   1.270       .  A
O1007     Mn1026   2.307       .  S
O1008     Mn1039   1.937       .  S
O1008     Mn1028   1.921       .  S
O1008      C1024   1.202       .  S
C1009      C1897   1.486       .  S
C1009      O1012   1.275       .  A
C1009      O1035   1.197       .  S
O1010     Mn1030   2.091       .  S
O1010     Mn1011   2.182       .  S
O1010     Mn1044   2.021       .  S
O1010     Mn1026   2.186       .  S
Mn1011     O1040   2.243       .  S
Mn1011     O1016   2.298       .  S
Mn1011     O1043   2.207       .  S
Mn1011     O1017   2.264       .  S
O1012     Mn1026   2.216       .  S
O1013      C1015   1.274       .  A
O1013     Mn1020   2.105       .  S
C1014      C1827   1.496       .  S
C1014      O1040   1.266       .  A
C1014      O1027   1.184       .  S
C1015      C1877   1.489       .  S
O1016      C1041   1.289       .  A
O1017     Mn1020   2.085       .  S
O1017     Mn1039   2.090       .  S
O1017     Mn1026   2.232       .  S
O1018     Mn1022   1.894       .  S
O1018     Mn1044   1.912       .  S
O1018      C1041   1.183       .  S
C1019      C3115   1.445       .  S
C1019      O1045   1.262       .  A
C1019      O1021   1.250       .  A
Mn1020     O1033   2.059       .  S
Mn1020     O1035   1.944       .  S
Mn1020     O1027   1.869       .  S
O1021     Mn1044   2.036       .  S
Mn1022     O1038   2.057       .  S
Mn1022     O1032   1.861       .  S
O1023      C1025   1.262       .  A
O1023     Mn1028   2.064       .  S
C1024      C1997   1.480       .  S
C1024      O1042   1.268       .  A
C1025      C1717   1.451       .  S
C1025      O1038   1.262       .  A
Mn1026     O1042   2.191       .  S
O1027     Mn1030   1.861       .  S
Mn1028     O1046   1.929       .  S
C1029      C2017   1.459       .  S
Mn1030     O1037   2.071       .  S
Mn1030     O1045   2.082       .  S
Mn1030     O1035   1.940       .  S
C1031      C1804   1.438       .  S
C1031      O1037   1.259       .  A
C1031      O1047   1.263       .  A
O1032     Mn1044   1.874       .  S
O1032      C1034   1.175       .  S
C1034      C3095   1.532       .  S
O1036     Mn1039   2.120       .  S
Mn1039     O1046   1.928       .  S
C1041      C1737   1.528       .  S
O1043      C1048   1.271       .  A
Mn1044     O1047   2.058       .  S
O1046      C1048   1.198       .  S
C1048      C3459   1.484       .  S
O1049      C1076   1.266       .  A
O1049     Mn1075   2.049       .  S
C1050      C3439   1.469       .  S
C1050      O1083   1.252       .  A
C1050      O1080   1.269       .  A
O1051     Mn1058   2.182   1_545  S
O1051     Mn1069   2.059       .  S
O1051     Mn1073   2.159       .  S
O1051     Mn1075   2.066       .  S
O1052      C1062   1.268       .  A
O1052     Mn1086   2.070       .  S
O1053      C1076   1.273       .  A
O1053     Mn1069   2.090       .  S
O1054      C1081   1.259       .  A
O1054     Mn1073   2.177       .  S
O1055     Mn1086   1.911       .  S
O1055     Mn1075   1.926       .  S
O1055      C1071   1.193       .  S
C1056      C1847   1.453       .  S
C1056      O1059   1.256   1_565  A
C1056      O1082   1.208       .  S
O1057     Mn1077   2.078       .  S
O1057     Mn1058   2.203       .  S
O1057     Mn1091   2.087       .  S
O1057     Mn1073   2.205   1_565  S
Mn1058     O1087   2.145       .  S
Mn1058     O1063   2.162       .  S
Mn1058     O1090   2.231   1_565  S
Mn1058     O1064   2.191   1_565  S
O1059     Mn1073   2.123       .  S
O1060      C1062   1.260       .  A
O1060     Mn1067   2.045   1_545  S
C1061      C3419   1.458       .  S
C1061      O1087   1.258       .  A
C1061      O1074   1.207       .  S
C1062      C2561   1.454       .  S
O1063      C1088   1.259       .  A
O1064     Mn1067   2.087   1_545  S
O1064     Mn1086   2.022       .  S
O1064     Mn1073   2.171       .  S
O1065     Mn1069   1.944   1_565  S
O1065     Mn1091   1.928       .  S
O1065      C1088   1.202       .  S
C1066      C1867   1.475       .  S
C1066      O1092   1.269       .  A
C1066      O1068   1.268       .  A
Mn1067     O1080   2.119       .  S
Mn1067     O1082   1.930       .  S
Mn1067     O1074   1.925       .  S
O1068     Mn1091   2.070       .  S
Mn1069     O1085   2.038       .  S
Mn1069     O1079   1.901       .  S
O1070      C1072   1.261       .  A
O1070     Mn1075   2.037       .  S
C1071      C2581   1.483       .  S
C1071      O1089   1.267       .  A
C1072      C2491   1.441       .  S
C1072      O1085   1.262       .  A
Mn1073     O1089   2.206       .  S
O1074     Mn1077   1.942       .  S
Mn1075     O1093   1.866       .  S
C1076      C2760   1.467       .  S
Mn1077     O1084   2.055       .  S
Mn1077     O1092   2.081       .  S
Mn1077     O1082   1.912       .  S
C1078      C1797   1.479       .  S
C1078      O1084   1.263       .  A
C1078      O1094   1.271       .  A
O1079     Mn1091   1.926   1_545  S
O1079      C1081   1.194       .  S
C1081      C2783   1.466       .  S
O1083     Mn1086   2.053   1_565  S
Mn1086     O1093   1.879       .  S
C1088      C1817   1.466       .  S
O1090      C1095   1.258       .  A
Mn1091     O1094   2.107       .  S
O1093      C1095   1.181       .  S
C1095      C2508   1.483       .  S
O1096      C1123   1.263       .  A
O1096     Mn1122   2.048       .  S
C1097      C1887   1.470       .  S
C1097      O1130   1.262       .  A
C1097      O1127   1.271       .  A
O1098     Mn1105   2.195       .  S
O1098     Mn1116   2.039       .  S
O1098     Mn1120   2.178       .  S
O1098     Mn1122   2.080       .  S
O1099      C1109   1.269       .  A
O1099     Mn1133   2.080       .  S
O1100      C1123   1.271       .  A
O1100     Mn1116   2.090       .  S
O1101      C1128   1.273       .  A
O1101     Mn1120   2.232       .  S
O1102     Mn1133   1.909       .  S
O1102     Mn1122   1.934       .  S
O1102      C1118   1.196       .  S
C1103      C2157   1.482       .  S
C1103      O1106   1.267       .  A
C1103      O1129   1.197       .  S
O1104     Mn1124   2.079       .  S
O1104     Mn1105   2.223       .  S
O1104     Mn1138   2.070       .  S
O1104     Mn1120   2.202       .  S
Mn1105     O1134   2.181       .  S
Mn1105     O1110   2.229       .  S
Mn1105     O1137   2.249       .  S
Mn1105     O1111   2.197       .  S
O1106     Mn1120   2.203       .  S
O1107      C1109   1.267       .  A
O1107     Mn1114   2.069       .  S
C1108      C1907   1.473       .  S
C1108      O1134   1.264       .  A
C1108      O1121   1.199       .  S
C1109      C3639   1.474       .  S
O1110      C1135   1.264       .  A
O1111     Mn1114   2.090       .  S
O1111     Mn1133   2.070       .  S
O1111     Mn1120   2.202       .  S
O1112     Mn1116   1.905       .  S
O1112     Mn1138   1.881       .  S
O1112      C1135   1.186       .  S
C1113      C2177   1.474       .  S
C1113      O1139   1.274       .  A
C1113      O1115   1.263       .  A
Mn1114     O1127   2.102       .  S
Mn1114     O1129   1.936       .  S
Mn1114     O1121   1.921       .  S
O1115     Mn1138   2.049       .  S
Mn1116     O1132   2.045       .  S
Mn1116     O1126   1.900       .  S
O1117      C1119   1.268       .  A
O1117     Mn1122   2.108       .  S
C1118      C3619   1.489       .  S
C1118      O1136   1.272       .  A
C1119      C2067   1.463       .  S
C1119      O1132   1.253       .  A
Mn1120     O1136   2.212       .  S
O1121     Mn1124   1.941       .  S
Mn1122     O1140   1.894       .  S
C1123      C1947   1.460       .  S
Mn1124     O1131   2.068       .  S
Mn1124     O1139   2.111       .  S
Mn1124     O1129   1.920       .  S
C1125      C3275   1.479       .  S
C1125      O1131   1.267       .  A
C1125      O1141   1.269       .  A
O1126     Mn1138   1.918       .  S
O1126      C1128   1.192       .  S
C1128      C1927   1.496       .  S
O1130     Mn1133   2.053       .  S
Mn1133     O1140   1.917       .  S
C1135      C3255   1.486       .  S
O1137      C1142   1.274       .  A
Mn1138     O1141   2.086       .  S
O1140      C1142   1.188       .  S
C1142      C2047   1.503       .  S
O1143      C1170   1.261       .  A
O1143     Mn1169   2.048       .  S
C1144      C3599   1.468       .  S
C1144      O1177   1.267       .  A
C1144      O1174   1.269       .  A
O1145     Mn1152   2.202   1_554  S
O1145     Mn1163   2.083       .  S
O1145     Mn1167   2.206       .  S
O1145     Mn1169   2.070       .  S
O1146      C1156   1.263       .  A
O1146     Mn1180   2.087       .  S
O1147      C1170   1.271       .  A
O1147     Mn1163   2.096       .  S
O1148      C1175   1.266       .  A
O1148     Mn1167   2.196       .  S
O1149     Mn1180   1.904       .  S
O1149     Mn1169   1.923       .  S
O1149      C1165   1.191       .  S
C1150      C1977   1.496       .  S
C1150      O1153   1.266       .  A
C1150      O1176   1.177       .  S
O1151     Mn1171   2.099       .  S
O1151     Mn1152   2.206       .  S
O1151     Mn1185   2.063       .  S
O1151     Mn1167   2.220   1_556  S
Mn1152     O1181   2.220       .  S
Mn1152     O1157   2.214       .  S
Mn1152     O1184   2.249       .  S
Mn1152     O1158   2.181       .  S
O1153     Mn1167   2.259   1_556  S
O1154      C1156   1.253   1_556  A
O1154     Mn1161   2.064       .  S
C1155      C3579   1.491       .  S
C1155      O1181   1.275       .  A
C1155      O1168   1.196       .  S
C1156      C2324   1.459       .  S
O1157      C1182   1.272       .  A
O1158     Mn1161   2.034       .  S
O1158     Mn1180   2.074   1_556  S
O1158     Mn1167   2.198   1_556  S
O1159     Mn1163   1.924   1_556  S
O1159     Mn1185   1.904       .  S
O1159      C1182   1.196       .  S
C1160      C1957   1.470       .  S
C1160      O1186   1.266       .  A
C1160      O1162   1.259       .  A
Mn1161     O1174   2.081       .  S
Mn1161     O1176   1.881       .  S
Mn1161     O1168   1.929       .  S
O1162     Mn1185   2.049       .  S
Mn1163     O1179   2.059       .  S
Mn1163     O1173   1.915   1_554  S
O1164      C1166   1.272       .  A
O1164     Mn1169   2.107       .  S
C1165      C2349   1.495       .  S
C1165      O1183   1.271       .  A
C1166      C2611   1.475       .  S
C1166      O1179   1.264       .  A
Mn1167     O1183   2.228       .  S
O1168     Mn1171   1.939       .  S
Mn1169     O1187   1.897       .  S
C1170      C2720   1.467       .  S
Mn1171     O1178   2.069       .  S
Mn1171     O1186   2.091       .  S
Mn1171     O1176   1.863       .  S
C1172      C1917   1.473       .  S
C1172      O1178   1.270       .  A
C1172      O1188   1.272       .  A
O1173     Mn1185   1.937       .  S
O1173      C1175   1.197   1_556  S
C1175      C2743   1.479       .  S
O1177     Mn1180   2.065   1_556  S
Mn1180     O1187   1.916       .  S
C1182      C1937   1.490       .  S
O1184      C1189   1.273   1_556  A
Mn1185     O1188   2.091       .  S
O1187      C1189   1.184       .  S
C1189      C2633   1.497       .  S
O1190      C1217   1.263       .  A
O1190     Mn1216   2.041       .  S
C1191      C2037   1.459       .  S
C1191      O1224   1.258       .  A
C1191      O1221   1.270       .  A
O1192     Mn1199   2.220       .  S
O1192     Mn1210   2.080       .  S
O1192     Mn1214   2.208       .  S
O1192     Mn1216   2.068       .  S
O1193      C1203   1.270       .  A
O1193     Mn1227   2.085       .  S
O1194      C1217   1.266       .  A
O1194     Mn1210   2.071       .  S
O1195      C1222   1.258       .  A
O1195     Mn1214   2.182       .  S
O1196     Mn1227   1.912       .  S
O1196     Mn1216   1.928       .  S
O1196      C1212   1.188       .  S
C1197      C2077   1.485       .  S
C1197      O1200   1.269       .  A
C1197      O1223   1.195       .  S
O1198     Mn1218   2.088       .  S
O1198     Mn1199   2.215       .  S
O1198     Mn1232   2.083       .  S
O1198     Mn1214   2.235       .  S
Mn1199     O1228   2.221       .  S
Mn1199     O1204   2.189       .  S
Mn1199     O1231   2.268       .  S
Mn1199     O1205   2.193       .  S
O1200     Mn1214   2.210       .  S
O1201      C1203   1.263       .  A
O1201     Mn1208   2.053       .  S
C1202      C2057   1.493       .  S
C1202      O1228   1.273       .  A
C1202      O1215   1.195       .  S
C1203      C3559   1.465       .  S
O1204      C1229   1.269       .  A
O1205     Mn1208   2.073       .  S
O1205     Mn1227   2.062       .  S
O1205     Mn1214   2.170       .  S
O1206     Mn1210   1.942       .  S
O1206     Mn1232   1.934       .  S
O1206      C1229   1.201       .  S
C1207      C2097   1.483       .  S
C1207      O1233   1.271       .  A
C1207      O1209   1.262       .  A
Mn1208     O1221   2.094       .  S
Mn1208     O1223   1.935       .  S
Mn1208     O1215   1.913       .  S
O1209     Mn1232   2.059       .  S
Mn1210     O1226   2.060       .  S
Mn1210     O1220   1.888       .  S
O1211      C1213   1.267       .  A
O1211     Mn1216   2.085       .  S
C1212      C3539   1.502       .  S
C1212      O1230   1.275       .  A
C1213      C2027   1.473       .  S
C1213      O1226   1.266       .  A
Mn1214     O1230   2.247       .  S
O1215     Mn1218   1.931       .  S
Mn1216     O1234   1.863       .  S
C1217      C2267   1.460       .  S
Mn1218     O1225   2.066       .  S
Mn1218     O1233   2.112       .  S
Mn1218     O1223   1.918       .  S
C1219      C3165   1.484       .  S
C1219      O1225   1.267       .  A
C1219      O1235   1.275       .  A
O1220     Mn1232   1.905       .  S
O1220      C1222   1.197       .  S
C1222      C2247   1.475       .  S
O1224     Mn1227   2.039       .  S
Mn1227     O1234   1.883       .  S
C1229      C3185   1.476       .  S
O1231      C1236   1.266       .  A
Mn1232     O1235   2.108       .  S
O1234      C1236   1.178       .  S
C1236      C2007   1.507       .  S
O1237      C1264   1.259       .  A
O1237     Mn1263   2.032       .  S
C1238      C3519   1.457       .  S
C1238      O1271   1.262       .  A
C1238      O1268   1.263   1_556  A
O1239     Mn1246   2.172       .  S
O1239     Mn1257   2.082       .  S
O1239     Mn1261   2.171   1_556  S
O1239     Mn1263   2.061       .  S
O1240      C1250   1.256   1_556  A
O1240     Mn1274   2.014       .  S
O1241      C1264   1.268       .  A
O1241     Mn1257   2.075       .  S
O1242      C1269   1.271       .  A
O1242     Mn1261   2.211       .  S
O1243     Mn1274   1.905       .  S
O1243     Mn1263   1.920       .  S
O1243      C1259   1.206       .  S
C1244      C2591   1.462       .  S
C1244      O1247   1.268       .  A
C1244      O1270   1.204       .  S
O1245     Mn1265   1.995       .  S
O1245     Mn1246   2.167   1_554  S
O1245     Mn1279   2.104       .  S
O1245     Mn1261   2.113       .  S
Mn1246     O1275   2.213       .  S
Mn1246     O1251   2.210       .  S
Mn1246     O1278   2.132       .  S
Mn1246     O1252   2.224       .  S
O1247     Mn1261   2.161       .  S
O1248      C1250   1.273       .  A
O1248     Mn1255   2.105       .  S
C1249      C2441   1.475       .  S
C1249      O1275   1.255   1_554  A
C1249      O1262   1.184       .  S
C1250      C2571   1.467       .  S
O1251      C1276   1.267       .  A
O1252     Mn1255   2.103   1_556  S
O1252     Mn1274   2.040       .  S
O1252     Mn1261   2.199   1_556  S
O1253     Mn1257   1.931       .  S
O1253     Mn1279   1.914   1_556  S
O1253      C1276   1.191       .  S
C1254      C2683   1.427       .  S
C1254      O1280   1.265       .  A
C1254      O1256   1.266       .  A
Mn1255     O1268   2.071       .  S
Mn1255     O1270   1.936       .  S
Mn1255     O1262   1.876       .  S
O1256     Mn1279   2.067       .  S
Mn1257     O1273   2.085       .  S
Mn1257     O1267   1.926   1_556  S
O1258      C1260   1.260       .  A
O1258     Mn1263   2.031       .  S
C1259      C2114   1.463       .  S
C1259      O1277   1.257   1_556  A
C1260      C2107   1.452       .  S
C1260      O1273   1.272       .  A
Mn1261     O1277   2.143       .  S
O1262     Mn1265   1.880       .  S
Mn1263     O1281   1.902       .  S
C1264      C2137   1.448       .  S
Mn1265     O1272   2.036       .  S
Mn1265     O1280   2.048       .  S
Mn1265     O1270   1.928       .  S
C1266      C2461   1.449       .  S
C1266      O1272   1.238       .  A
C1266      O1282   1.264       .  A
O1267     Mn1279   1.936       .  S
O1267      C1269   1.197       .  S
C1269      C2703   1.488       .  S
O1271     Mn1274   2.058       .  S
Mn1274     O1281   1.901       .  S
C1276      C2087   1.480       .  S
O1278      C1283   1.253       .  A
Mn1279     O1282   2.117       .  S
O1281      C1283   1.204       .  S
C1283      C3499   1.451       .  S
O1284      C1311   1.268       .  A
O1284     Mn1310   2.078       .  S
C1285      C3589   1.449       .  S
C1285      O1318   1.265       .  A
C1285      O1315   1.255   1_565  A
O1286     Mn1293   2.213       .  S
O1286     Mn1304   2.082       .  S
O1286     Mn1308   2.211   1_565  S
O1286     Mn1310   2.058       .  S
O1287      C1297   1.265   1_565  A
O1287     Mn1321   2.062       .  S
O1288      C1311   1.262       .  A
O1288     Mn1304   2.058       .  S
O1289      C1316   1.267       .  A
O1289     Mn1308   2.265       .  S
O1290     Mn1321   1.941       .  S
O1290     Mn1310   1.940       .  S
O1290      C1306   1.200       .  S
C1291      C2663   1.502       .  S
C1291      O1294   1.272       .  A
C1291      O1317   1.187       .  S
O1292     Mn1312   2.068       .  S
O1292     Mn1293   2.193   1_545  S
O1292     Mn1326   2.063       .  S
O1292     Mn1308   2.213       .  S
Mn1293     O1322   2.259       .  S
Mn1293     O1298   2.204       .  S
Mn1293     O1325   2.236       .  S
Mn1293     O1299   2.222   1_565  S
O1294     Mn1308   2.247       .  S
O1295      C1297   1.264       .  A
O1295     Mn1302   2.061       .  S
C1296      C2411   1.503       .  S
C1296      O1322   1.267   1_545  A
C1296      O1309   1.180       .  S
C1297      C2643   1.453       .  S
O1298      C1323   1.276       .  A
O1299     Mn1302   2.039       .  S
O1299     Mn1321   2.102   1_545  S
O1299     Mn1308   2.205       .  S
O1300     Mn1304   1.941       .  S
O1300     Mn1326   1.962   1_565  S
O1300      C1323   1.205       .  S
C1301      C2843   1.457       .  S
C1301      O1327   1.252       .  A
C1301      O1303   1.272       .  A
Mn1302     O1315   2.027       .  S
Mn1302     O1317   1.876       .  S
Mn1302     O1309   1.898       .  S
O1303     Mn1326   2.110       .  S
Mn1304     O1320   2.094       .  S
Mn1304     O1314   1.884   1_565  S
O1305      C1307   1.258       .  A
O1305     Mn1310   2.055       .  S
C1306      C2197   1.483       .  S
C1306      O1324   1.274   1_565  A
C1307      C2187   1.464       .  S
C1307      O1320   1.270       .  A
Mn1308     O1324   2.201       .  S
O1309     Mn1312   1.881       .  S
Mn1310     O1328   1.874       .  S
C1311      C2217   1.467       .  S
Mn1312     O1319   2.108       .  S
Mn1312     O1327   1.991       .  S
Mn1312     O1317   1.906       .  S
C1313      C2431   1.452       .  S
C1313      O1319   1.276       .  A
C1313      O1329   1.257       .  A
O1314     Mn1326   1.859       .  S
O1314      C1316   1.179       .  S
C1316      C2860   1.508       .  S
O1318     Mn1321   2.083       .  S
Mn1321     O1328   1.865       .  S
C1323      C2167   1.489       .  S
O1325      C1330   1.265       .  A
Mn1326     O1329   1.996       .  S
O1328      C1330   1.185       .  S
C1330      C3569   1.493       .  S
O1331      C1358   1.265       .  A
O1331     Mn1357   2.061       .  S
C1332      C3509   1.465       .  S
C1332      O1365   1.265   1_655  A
C1332      O1362   1.270       .  A
O1333     Mn1340   2.186       .  S
O1333     Mn1351   2.021       .  S
O1333     Mn1355   2.191       .  S
O1333     Mn1357   2.096       .  S
O1334      C1344   1.268       .  A
O1334     Mn1368   2.076       .  S
O1335      C1358   1.269       .  A
O1335     Mn1351   2.074       .  S
O1336      C1363   1.266       .  A
O1336     Mn1355   2.182       .  S
O1337     Mn1368   1.882       .  S
O1337     Mn1357   1.891       .  S
O1337      C1353   1.192       .  S
C1338      C2297   1.478   1_455  S
C1338      O1341   1.262       .  A
C1338      O1364   1.197   1_455  S
O1339     Mn1359   2.057       .  S
O1339     Mn1340   2.219   1_655  S
O1339     Mn1373   2.066       .  S
O1339     Mn1355   2.176   1_655  S
Mn1340     O1369   2.161   1_455  S
Mn1340     O1345   2.270   1_455  S
Mn1340     O1372   2.176       .  S
Mn1340     O1346   2.223       .  S
O1341     Mn1355   2.192       .  S
O1342      C1344   1.264       .  A
O1342     Mn1349   2.048   1_455  S
C1343      C3489   1.464       .  S
C1343      O1369   1.256       .  A
C1343      O1356   1.197       .  S
C1344      C2653   1.466       .  S
O1345      C1370   1.260       .  A
O1346     Mn1349   2.073   1_455  S
O1346     Mn1368   2.068       .  S
O1346     Mn1355   2.213       .  S
O1347     Mn1351   1.871       .  S
O1347     Mn1373   1.861   1_455  S
O1347      C1370   1.174   1_455  S
C1348      C2277   1.443       .  S
C1348      O1374   1.275       .  A
C1348      O1350   1.263       .  A
Mn1349     O1362   2.079       .  S
Mn1349     O1364   1.929       .  S
Mn1349     O1356   1.887       .  S
O1350     Mn1373   2.043       .  S
Mn1351     O1367   2.049       .  S
Mn1351     O1361   1.920       .  S
O1352      C1354   1.263       .  A
O1352     Mn1357   2.096       .  S
C1353      C2673   1.460       .  S
C1353      O1371   1.253       .  A
C1354      C2531   1.458       .  S
C1354      O1367   1.249       .  A
Mn1355     O1371   2.173       .  S
O1356     Mn1359   1.912       .  S
Mn1357     O1375   1.930       .  S
C1358      C2903   1.460       .  S
Mn1359     O1366   2.024       .  S
Mn1359     O1374   2.089       .  S
Mn1359     O1364   1.914       .  S
C1360      C2237   1.439       .  S
C1360      O1366   1.257       .  A
C1360      O1376   1.263       .  A
O1361     Mn1373   1.934   1_455  S
O1361      C1363   1.197       .  S
C1363      C2883   1.470       .  S
O1365     Mn1368   2.046       .  S
Mn1368     O1375   1.936       .  S
C1370      C2254   1.499       .  S
O1372      C1377   1.264       .  A
Mn1373     O1376   2.096       .  S
O1375      C1377   1.202       .  S
C1377      C2551   1.470       .  S
O1378      C1405   1.261       .  A
O1378     Mn1404   2.069   1_455  S
C1379      C3469   1.454       .  S
C1379      O1412   1.255       .  A
C1379      O1409   1.271       .  A
O1380     Mn1387   2.200   1_445  S
O1380     Mn1398   2.049       .  S
O1380     Mn1402   2.187       .  S
O1380     Mn1404   2.048   1_455  S
O1381      C1391   1.272       .  A
O1381     Mn1415   2.093       .  S
O1382      C1405   1.267       .  A
O1382     Mn1398   2.078       .  S
O1383      C1410   1.273       .  A
O1383     Mn1402   2.218       .  S
O1384     Mn1415   1.895       .  S
O1384     Mn1404   1.924       .  S
O1384      C1400   1.183       .  S
C1385      C2207   1.487       .  S
C1385      O1388   1.271   1_565  A
C1385      O1411   1.194       .  S
O1386     Mn1406   2.074       .  S
O1386     Mn1387   2.233   1_455  S
O1386     Mn1420   2.078       .  S
O1386     Mn1402   2.222   1_565  S
Mn1387     O1416   2.218       .  S
Mn1387     O1392   2.207   1_655  S
Mn1387     O1419   2.294       .  S
Mn1387     O1393   2.182   1_565  S
O1388     Mn1402   2.216       .  S
O1389      C1391   1.262       .  A
O1389     Mn1396   2.039   1_545  S
C1390      C3449   1.489       .  S
C1390      O1416   1.270       .  A
C1390      O1403   1.194       .  S
C1391      C2307   1.458       .  S
O1392      C1417   1.266       .  A
O1393     Mn1396   2.067   1_545  S
O1393     Mn1415   2.043       .  S
O1393     Mn1402   2.183   1_655  S
O1394     Mn1398   1.907   1_565  S
O1394     Mn1420   1.889       .  S
O1394      C1417   1.189       .  S
C1395      C2227   1.478       .  S
C1395      O1421   1.272       .  A
C1395      O1397   1.261       .  A
Mn1396     O1409   2.097       .  S
Mn1396     O1411   1.931   1_655  S
Mn1396     O1403   1.902       .  S
O1397     Mn1420   2.051       .  S
Mn1398     O1414   2.058       .  S
Mn1398     O1408   1.905       .  S
O1399      C1401   1.266       .  A
O1399     Mn1404   2.100       .  S
C1400      C2287   1.518       .  S
C1400      O1418   1.277   1_655  A
C1401      C2501   1.462       .  S
C1401      O1414   1.256   1_655  A
Mn1402     O1418   2.281       .  S
O1403     Mn1406   1.928   1_655  S
Mn1404     O1422   1.878       .  S
C1405      C3317   1.465       .  S
Mn1406     O1413   2.054       .  S
Mn1406     O1421   2.115       .  S
Mn1406     O1411   1.906       .  S
C1407      C2381   1.475       .  S
C1407      O1413   1.262       .  A
C1407      O1423   1.270       .  A
O1408     Mn1420   1.923   1_545  S
O1408      C1410   1.195       .  S
C1410      C3297   1.486       .  S
O1412     Mn1415   2.043   1_565  S
Mn1415     O1422   1.898       .  S
C1417      C2361   1.472       .  S
O1419      C1424   1.277   1_565  A
Mn1420     O1423   2.107       .  S
O1422      C1424   1.177       .  S
C1424      C2478   1.518       .  S
O1425      C1452   1.265       .  A
O1425     Mn1451   2.084       .  S
C1426      C3629   1.470       .  S
C1426      O1459   1.266       .  A
C1426      O1456   1.262   1_565  A
O1427     Mn1434   2.200   1_554  S
O1427     Mn1445   2.051       .  S
O1427     Mn1449   2.208   1_565  S
O1427     Mn1451   2.087       .  S
O1428      C1438   1.268       .  A
O1428     Mn1462   2.056   1_545  S
O1429      C1452   1.259       .  A
O1429     Mn1445   2.060       .  S
O1430      C1457   1.259       .  A
O1430     Mn1449   2.229       .  S
O1431     Mn1462   1.943   1_554  S
O1431     Mn1451   1.939       .  S
O1431      C1447   1.204       .  S
C1432      C2147   1.478       .  S
C1432      O1435   1.266   1_556  A
C1432      O1458   1.204       .  S
O1433     Mn1453   2.045   1_554  S
O1433     Mn1434   2.169   1_544  S
O1433     Mn1467   2.086       .  S
O1433     Mn1449   2.185       .  S
Mn1434     O1463   2.205       .  S
Mn1434     O1439   2.208       .  S
Mn1434     O1466   2.179       .  S
Mn1434     O1440   2.232   1_565  S
O1435     Mn1449   2.172       .  S
O1436      C1438   1.274       .  A
O1436     Mn1443   2.074       .  S
C1437      C2421   1.482       .  S
C1437      O1463   1.263   1_545  A
C1437      O1450   1.192       .  S
C1438      C2127   1.470       .  S
O1439      C1464   1.272   1_556  A
O1440     Mn1443   2.091       .  S
O1440     Mn1462   2.066   1_545  S
O1440     Mn1449   2.186   1_556  S
O1441     Mn1445   1.945       .  S
O1441     Mn1467   1.937   1_565  S
O1441      C1464   1.195       .  S
C1442      C3377   1.455       .  S
C1442      O1468   1.265       .  A
C1442      O1444   1.261       .  A
Mn1443     O1456   2.054       .  S
Mn1443     O1458   1.949       .  S
Mn1443     O1450   1.886       .  S
O1444     Mn1467   2.055       .  S
Mn1445     O1461   2.089       .  S
Mn1445     O1455   1.875   1_565  S
O1446      C1448   1.265       .  A
O1446     Mn1451   2.058       .  S
C1447      C1837   1.471       .  S
C1447      O1465   1.266   1_565  A
C1448      C2601   1.469       .  S
C1448      O1461   1.272       .  A
Mn1449     O1465   2.175       .  S
O1450     Mn1453   1.893       .  S
Mn1451     O1469   1.885   1_554  S
C1452      C1857   1.469       .  S
Mn1453     O1460   2.058       .  S
Mn1453     O1468   2.052   1_556  S
Mn1453     O1458   1.939       .  S
C1454      C2401   1.451       .  S
C1454      O1460   1.263       .  A
C1454      O1470   1.269   1_556  A
O1455     Mn1467   1.871       .  S
O1455      C1457   1.183       .  S
C1457      C3399   1.487       .  S
O1459     Mn1462   2.079       .  S
Mn1462     O1469   1.880       .  S
C1464      C2623   1.482       .  S
O1466      C1471   1.252       .  A
Mn1467     O1470   2.088       .  S
O1469      C1471   1.192       .  S
C1471      C3609   1.466       .  S
O1472      C1499   1.272       .  A
O1472     Mn1498   2.124       .  S
C1473      C3549   1.488       .  S
C1473      O1506   1.275       .  A
C1473      O1503   1.268       .  A
O1474     Mn1481   2.260   1_455  S
O1474     Mn1492   2.078       .  S
O1474     Mn1496   2.268       .  S
O1474     Mn1498   2.101       .  S
O1475      C1485   1.271       .  A
O1475     Mn1509   2.087       .  S
O1476      C1499   1.265       .  A
O1476     Mn1492   2.091       .  S
O1477      C1504   1.277   1_554  A
O1477     Mn1496   2.288   1_554  S
O1478     Mn1509   1.936   1_455  S
O1478     Mn1498   1.933       .  S
O1478      C1494   1.200       .  S
C1479      C1777   1.543       .  S
C1479      O1482   1.278   1_655  A
C1479      O1505   1.172       .  S
O1480     Mn1500   2.023   1_456  S
O1480     Mn1481   2.174   1_455  S
O1480     Mn1514   2.070       .  S
O1480     Mn1496   2.183       .  S
Mn1481     O1510   2.337       .  S
Mn1481     O1486   2.251   1_655  S
Mn1481     O1513   2.197       .  S
Mn1481     O1487   2.227       .  S
O1482     Mn1496   2.334   1_554  S
O1483      C1485   1.271   1_554  A
O1483     Mn1490   2.100   1_554  S
C1484      C2471   1.543   1_556  S
C1484      O1510   1.281       .  A
C1484      O1497   1.172       .  S
C1485      C1757   1.489       .  S
O1486      C1511   1.279       .  A
O1487     Mn1490   2.051       .  S
O1487     Mn1509   2.084       .  S
O1487     Mn1496   2.242   1_655  S
O1488     Mn1492   1.919       .  S
O1488     Mn1514   1.928       .  S
O1488      C1511   1.191       .  S
C1489      C3337   1.463       .  S
C1489      O1515   1.260       .  A
C1489      O1491   1.272       .  A
Mn1490     O1503   2.067       .  S
Mn1490     O1505   1.886   1_556  S
Mn1490     O1497   1.898       .  S
O1491     Mn1514   2.095   1_554  S
Mn1492     O1508   2.116       .  S
Mn1492     O1502   1.914       .  S
O1493      C1495   1.275       .  A
O1493     Mn1498   2.100       .  S
C1494      C1987   1.480       .  S
C1494      O1512   1.272       .  A
C1495      C2521   1.508       .  S
C1495      O1508   1.275       .  A
Mn1496     O1512   2.201       .  S
O1497     Mn1500   1.892   1_556  S
Mn1498     O1516   1.945       .  S
C1499      C1967   1.503       .  S
Mn1500     O1507   2.087       .  S
Mn1500     O1515   2.046   1_655  S
Mn1500     O1505   1.895       .  S
C1501      C2451   1.461       .  S
C1501      O1507   1.270       .  A
C1501      O1517   1.265   1_654  A
O1502     Mn1514   1.883       .  S
O1502      C1504   1.179       .  S
C1504      C3357   1.517   1_556  S
O1506     Mn1509   2.113       .  S
Mn1509     O1516   1.934   1_655  S
C1511      C2541   1.509       .  S
O1513      C1518   1.270       .  A
Mn1514     O1517   2.049       .  S
O1516      C1518   1.201   1_455  S
C1518      C3529   1.480       .  S
O1519      C1546   1.272       .  A
O1519     Mn1545   2.094       .  S
C1520      C3307   1.461       .  S
C1520      O1553   1.253       .  A
C1520      O1550   1.272       .  A
O1521     Mn1528   2.116       .  S
O1521     Mn1539   2.096       .  S
O1521     Mn1543   2.108       .  S
O1521     Mn1545   2.107       .  S
O1522      C1532   1.253       .  A
O1522     Mn1556   1.999       .  S
O1523      C1546   1.277       .  A
O1523     Mn1539   2.129       .  S
O1524      C1551   1.250       .  A
O1524     Mn1543   2.109       .  S
O1525     Mn1556   1.926       .  S
O1525     Mn1545   1.985       .  S
O1525      C1541   1.221       .  S
C1526      C2913   1.487       .  S
C1526      O1529   1.235       .  A
C1526      O1552   1.256       .  S
O1527     Mn1547   2.175       .  S
O1527     Mn1528   2.158       .  S
O1527     Mn1561   2.118       .  S
O1527     Mn1543   2.138       .  S
Mn1528     O1557   1.962       .  S
Mn1528     O1533   2.111       .  S
Mn1528     O1560   2.146       .  S
Mn1528     O1534   2.152       .  S
O1529     Mn1543   1.959       .  S
O1530      C1532   1.274       .  A
O1530     Mn1537   2.102       .  S
C1531      C3284   1.486       .  S
C1531      O1557   1.233       .  A
C1531      O1544   1.252       .  S
C1532      C2893   1.446       .  S
O1533      C1558   1.253       .  A
O1534     Mn1537   2.176       .  S
O1534     Mn1556   2.104       .  S
O1534     Mn1543   2.149       .  S
O1535     Mn1539   1.948       .  S
O1535     Mn1561   1.908       .  S
O1535      C1558   1.213       .  S
C1536      C2853   1.443       .  S
C1536      O1562   1.273       .  A
C1536      O1538   1.256       .  A
Mn1537     O1550   2.112       .  S
Mn1537     O1552   2.022       .  S
Mn1537     O1544   2.010       .  S
O1538     Mn1561   2.021       .  S
Mn1539     O1555   2.155       .  S
Mn1539     O1549   2.002       .  S
O1540      C1542   1.277       .  A
O1540     Mn1545   2.115       .  S
C1541      C3035   1.494       .  S
C1541      O1559   1.250       .  A
C1542      C2945   1.546       .  S
C1542      O1555   1.285       .  A
Mn1543     O1559   2.105       .  S
O1544     Mn1547   2.020       .  S
Mn1545     O1563   1.945       .  S
C1546      C3045   1.523       .  S
Mn1547     O1554   2.136       .  S
Mn1547     O1562   2.111       .  S
Mn1547     O1552   2.037       .  S
C1548      C2873   1.468       .  S
C1548      O1554   1.276       .  A
C1548      O1564   1.254       .  A
O1549     Mn1561   1.932       .  S
O1549      C1551   1.222       .  S
C1551      C3065   1.506       .  S
O1553     Mn1556   2.003       .  S
Mn1556     O1563   1.893       .  S
C1558      C2920   1.477       .  S
O1560      C1565   1.254       .  A
Mn1561     O1564   2.014       .  S
O1563      C1565   1.212       .  S
C1565      C3015   1.500       .  S
O1566      C1593   1.271       .  A
O1566     Mn1592   2.093       .  S
C1567      C3389   1.466       .  S
C1567      O1600   1.266       .  A
C1567      O1597   1.257       .  A
O1568     Mn1575   2.215       .  S
O1568     Mn1586   2.074       .  S
O1568     Mn1590   2.202       .  S
O1568     Mn1592   2.018       .  S
O1569      C1579   1.263       .  A
O1569     Mn1603   2.042       .  S
O1570      C1593   1.263       .  A
O1570     Mn1586   2.042       .  S
O1571      C1598   1.287       .  A
O1571     Mn1590   2.283       .  S
O1572     Mn1603   1.897       .  S
O1572     Mn1592   1.893       .  S
O1572      C1588   1.179       .  S
C1573      C2933   1.525       .  S
C1573      O1576   1.280       .  A
C1573      O1599   1.182       .  S
O1574     Mn1594   2.081       .  S
O1574     Mn1575   2.257       .  S
O1574     Mn1608   2.057       .  S
O1574     Mn1590   2.243       .  S
Mn1575     O1604   2.270       .  S
Mn1575     O1580   2.292       .  S
Mn1575     O1607   2.366       .  S
Mn1575     O1581   2.223       .  S
O1576     Mn1590   2.297       .  S
O1577      C1579   1.273       .  A
O1577     Mn1584   2.102       .  S
C1578      C2793   1.515       .  S
C1578      O1604   1.284       .  A
C1578      O1591   1.189       .  S
C1579      C2952   1.463       .  S
O1580      C1605   1.278       .  A
O1581     Mn1584   2.046       .  S
O1581     Mn1603   2.062       .  S
O1581     Mn1590   2.215       .  S
O1582     Mn1586   1.885       .  S
O1582     Mn1608   1.918       .  S
O1582      C1605   1.180       .  S
C1583      C3225   1.481       .  S
C1583      O1609   1.268       .  A
C1583      O1585   1.273       .  A
Mn1584     O1597   2.042       .  S
Mn1584     O1599   1.888       .  S
Mn1584     O1591   1.923       .  S
O1585     Mn1608   2.105       .  S
Mn1586     O1602   2.109       .  S
Mn1586     O1596   1.917       .  S
O1587      C1589   1.250       .  A
O1587     Mn1592   2.033       .  S
C1588      C2965   1.550       .  S
C1588      O1606   1.288       .  A
C1589      C2713   1.459       .  S
C1589      O1602   1.271       .  A
Mn1590     O1606   2.335       .  S
O1591     Mn1594   1.906       .  S
Mn1592     O1610   1.882       .  S
C1593      C2985   1.457       .  S
Mn1594     O1601   2.104       .  S
Mn1594     O1609   2.071       .  S
Mn1594     O1599   1.901       .  S
C1595      C2773   1.485       .  S
C1595      O1601   1.269       .  A
C1595      O1611   1.264       .  A
O1596     Mn1608   1.899       .  S
O1596      C1598   1.188       .  S
C1598      C3205   1.524       .  S
O1600     Mn1603   2.097       .  S
Mn1603     O1610   1.860       .  S
C1605      C2693   1.521       .  S
O1607      C1612   1.282       .  A
Mn1608     O1611   2.075       .  S
O1610      C1612   1.171       .  S
C1612      C3367   1.563       .  S
O1613      C1640   1.267       .  A
O1613     Mn1639   2.084       .  S
C1614      C3347   1.443       .  S
C1614      O1647   1.271       .  A
C1614      O1644   1.260       .  A
O1615     Mn1622   2.209       .  S
O1615     Mn1633   2.051       .  S
O1615     Mn1637   2.209       .  S
O1615     Mn1639   2.094       .  S
O1616      C1626   1.265       .  A
O1616     Mn1650   2.077       .  S
O1617      C1640   1.260       .  A
O1617     Mn1633   2.036       .  S
O1618      C1645   1.258       .  A
O1618     Mn1637   2.183       .  S
O1619     Mn1650   1.913       .  S
O1619     Mn1639   1.920       .  S
O1619      C1635   1.195       .  S
C1620      C2995   1.501       .  S
C1620      O1623   1.268       .  A
C1620      O1646   1.181       .  S
O1621     Mn1641   2.038       .  S
O1621     Mn1622   2.195       .  S
O1621     Mn1655   2.071       .  S
O1621     Mn1637   2.226       .  S
Mn1622     O1651   2.234       .  S
Mn1622     O1627   2.176       .  S
Mn1622     O1654   2.192       .  S
Mn1622     O1628   2.169       .  S
O1623     Mn1637   2.259       .  S
O1624      C1626   1.253       .  A
O1624     Mn1631   2.047       .  S
C1625      C2753   1.491       .  S
C1625      O1651   1.268       .  A
C1625      O1638   1.186       .  S
C1626      C2975   1.449       .  S
O1627      C1652   1.261       .  A
O1628     Mn1631   2.032       .  S
O1628     Mn1650   2.078       .  S
O1628     Mn1637   2.179       .  S
O1629     Mn1633   1.912       .  S
O1629     Mn1655   1.918       .  S
O1629      C1652   1.201       .  S
C1630      C3135   1.448       .  S
C1630      O1656   1.255       .  A
C1630      O1632   1.267       .  A
Mn1631     O1644   2.032       .  S
Mn1631     O1646   1.874       .  S
Mn1631     O1638   1.904       .  S
O1632     Mn1655   2.088       .  S
Mn1633     O1649   2.046       .  S
Mn1633     O1643   1.892       .  S
O1634      C1636   1.267       .  A
O1634     Mn1639   2.078       .  S
C1635      C3005   1.500       .  S
C1635      O1653   1.273       .  A
C1636      C2813   1.458       .  S
C1636      O1649   1.266       .  A
Mn1637     O1653   2.228       .  S
O1638     Mn1641   1.896       .  S
Mn1639     O1657   1.915       .  S
C1640      C3025   1.442       .  S
Mn1641     O1648   2.083       .  S
Mn1641     O1656   2.002       .  S
Mn1641     O1646   1.879       .  S
C1642      C2733   1.463       .  S
C1642      O1648   1.272       .  A
C1642      O1658   1.265       .  A
O1643     Mn1655   1.896       .  S
O1643      C1645   1.195       .  S
C1645      C3155   1.474       .  S
O1647     Mn1650   2.070       .  S
Mn1650     O1657   1.923       .  S
C1652      C2833   1.475       .  S
O1654      C1659   1.264       .  A
Mn1655     O1658   2.049       .  S
O1657      C1659   1.196       .  S
C1659      C3324   1.477       .  S
O1660      C1687   1.251       .  A
O1660     Mn1686   2.045       .  S
C1661      C3145   1.449       .  S
C1661      O1694   1.257       .  A
C1661      O1691   1.269       .  A
O1662     Mn1669   2.152       .  S
O1662     Mn1680   2.114       .  S
O1662     Mn1684   2.160       .  S
O1662     Mn1686   2.038       .  S
O1663      C1673   1.265       .  A
O1663     Mn1697   2.069       .  S
O1664      C1687   1.265       .  A
O1664     Mn1680   2.109       .  S
O1665      C1692   1.260       .  A
O1665     Mn1684   2.164       .  S
O1666     Mn1697   1.889       .  S
O1666     Mn1686   1.897       .  S
O1666      C1682   1.186       .  S
C1667      C3245   1.462       .  S
C1667      O1670   1.257       .  A
C1667      O1693   1.208       .  S
O1668     Mn1688   2.056       .  S
O1668     Mn1669   2.178       .  S
O1668     Mn1702   2.105       .  S
O1668     Mn1684   2.199       .  S
Mn1669     O1698   2.145       .  S
Mn1669     O1674   2.155       .  S
Mn1669     O1701   2.144       .  S
Mn1669     O1675   2.194       .  S
O1670     Mn1684   2.128       .  S
O1671      C1673   1.263       .  A
O1671     Mn1678   2.062       .  S
C1672      C3055   1.454       .  S
C1672      O1698   1.250       .  A
C1672      O1685   1.201       .  S
C1673      C3265   1.446       .  S
O1674      C1699   1.257       .  A
O1675     Mn1678   2.082       .  S
O1675     Mn1697   2.045       .  S
O1675     Mn1684   2.189       .  S
O1676     Mn1680   1.937       .  S
O1676     Mn1702   1.929       .  S
O1676      C1699   1.202       .  S
C1677      C3175   1.450       .  S
C1677      O1703   1.258       .  A
C1677      O1679   1.272       .  A
Mn1678     O1691   2.082       .  S
Mn1678     O1693   1.919       .  S
Mn1678     O1685   1.915       .  S
O1679     Mn1702   2.097       .  S
Mn1680     O1696   2.091       .  S
Mn1680     O1690   1.931       .  S
O1681      C1683   1.256       .  A
O1681     Mn1686   2.020       .  S
C1682      C3105   1.491       .  S
C1682      O1700   1.264       .  A
C1683      C3215   1.451       .  S
C1683      O1696   1.273       .  A
Mn1684     O1700   2.231       .  S
O1685     Mn1688   1.918       .  S
Mn1686     O1704   1.900       .  S
C1687      C3085   1.463       .  S
Mn1688     O1695   2.058       .  S
Mn1688     O1703   2.024       .  S
Mn1688     O1693   1.906       .  S
C1689      C3075   1.468       .  S
C1689      O1695   1.265       .  A
C1689      O1705   1.268       .  A
O1690     Mn1702   1.941       .  S
O1690      C1692   1.201       .  S
C1692      C3195   1.464       .  S
O1694     Mn1697   2.030       .  S
Mn1697     O1704   1.911       .  S
C1699      C3235   1.461       .  S
O1701      C1706   1.256       .  A
Mn1702     O1705   2.099       .  S
O1704      C1706   1.203       .  S
C1706      C3125   1.467       .  S
C1707      C1708   1.446   1_565  A
C1707      C1712   1.438       .  A
C1707      C2618   1.531       .  S
C1708      C1709   1.462       .  A
C1708      C3383   1.465       .  S
C1709      C1710   1.439       .  A
C1709      C2939   1.514       .  S
C1710      C1711   1.456   1_545  A
C1710      C3282   1.522       .  S
C1711      C1712   1.460       .  A
C1711      C2356   1.479       .  S
C1712      C2334   1.499       .  S
C1713      C1714   1.399       .  A
C1713      C1718   1.388       .  A
C1713      H1719   1.083       .  S
C1714      C1715   1.397       .  A
C1715      C1716   1.383       .  A
C1715      H1720   1.084       .  S
C1716      C1717   1.404       .  A
C1716      H1721   1.083       .  S
C1717      C1718   1.402       .  A
C1718      H1722   1.083       .  S
C1723      C1724   1.422       .  A
C1723      C1728   1.413       .  A
C1723      H1729   1.083       .  S
C1724      C1725   1.396   1_655  A
C1725      C1726   1.406       .  A
C1725      H1730   1.083       .  S
C1726      C1727   1.421   1_455  A
C1726      H1731   1.073       .  S
C1727      C1728   1.404       .  A
C1728      H1732   1.083       .  S
C1733      C1734   1.405       .  A
C1733      C1738   1.408       .  A
C1733      H1739   1.084       .  S
C1734      C1735   1.419       .  A
C1735      C1736   1.437       .  A
C1735      H1740   1.082       .  S
C1736      C1737   1.424       .  A
C1736      H1741   1.081       .  S
C1737      C1738   1.413       .  A
C1738      H1742   1.060       .  S
C1743      C1744   1.402       .  A
C1743      C1748   1.389       .  A
C1743      H1749   1.083       .  S
C1744      C1745   1.412       .  A
C1745      C1746   1.381       .  A
C1745      H1750   1.082       .  S
C1746      C1747   1.390       .  A
C1746      H1751   1.084       .  S
C1747      C1748   1.401       .  A
C1748      H1752   1.082       .  S
C1753      C1754   1.408       .  A
C1753      C1758   1.404       .  A
C1753      H1759   1.083       .  S
C1754      C1755   1.402   1_556  A
C1755      C1756   1.397       .  A
C1755      H1760   1.084       .  S
C1756      C1757   1.410   1_554  A
C1756      H1761   1.083       .  S
C1757      C1758   1.406       .  A
C1758      H1762   1.080       .  S
C1763      C1764   1.396       .  A
C1763      C1768   1.404       .  A
C1763      H1769   1.083       .  S
C1764      C1765   1.424       .  A
C1765      C1766   1.416       .  A
C1765      H1770   1.083       .  S
C1766      C1767   1.401       .  A
C1766      H1771   1.083   1_655  S
C1767      C1768   1.424       .  A
C1768      H1772   1.083       .  S
C1773      C1774   1.430       .  A
C1773      C1778   1.442       .  A
C1773      H1779   1.082       .  S
C1774      C1775   1.400       .  A
C1775      C1776   1.406       .  A
C1775      H1780   1.084       .  S
C1776      C1777   1.424       .  A
C1776      H1781   1.077       .  S
C1777      C1778   1.417       .  A
C1778      H1782   1.082   1_655  S
C1783      C1784   1.408       .  A
C1783      C1788   1.381       .  A
C1783      H1789   1.083       .  S
C1784      C1785   1.394       .  A
C1785      C1786   1.379       .  A
C1785      H1790   1.084       .  S
C1786      C1787   1.405       .  A
C1786      H1791   1.080       .  S
C1787      C1788   1.394       .  A
C1788      H1792   1.082       .  S
C1793      C1794   1.406       .  A
C1793      C1798   1.400       .  A
C1793      H1799   1.083       .  S
C1794      C1795   1.403       .  A
C1795      C1796   1.394       .  A
C1795      H1800   1.083       .  S
C1796      C1797   1.407       .  A
C1796      H1801   1.082       .  S
C1797      C1798   1.406       .  A
C1798      H1802   1.083       .  S
C1803      C1804   1.394       .  A
C1803      C1808   1.381       .  A
C1803      H1809   1.085       .  S
C1804      C1805   1.400       .  A
C1805      C1806   1.390       .  A
C1805      H1810   1.081       .  S
C1806      C1807   1.401       .  A
C1806      H1811   1.083       .  S
C1807      C1808   1.406       .  A
C1808      H1812   1.084       .  S
C1813      C1814   1.403       .  A
C1813      C1818   1.397       .  A
C1813      H1819   1.084       .  S
C1814      C1815   1.406       .  A
C1815      C1816   1.400       .  A
C1815      H1820   1.083   1_565  S
C1816      C1817   1.405       .  A
C1816      H1821   1.079   1_565  S
C1817      C1818   1.403       .  A
C1818      H1822   1.078       .  S
C1823      C1824   1.395       .  A
C1823      C1828   1.398       .  A
C1823      H1829   1.083       .  S
C1824      C1825   1.423       .  A
C1825      C1826   1.415       .  A
C1825      H1830   1.083       .  S
C1826      C1827   1.402       .  A
C1826      H1831   1.083       .  S
C1827      C1828   1.420       .  A
C1828      H1832   1.078       .  S
C1833      C1834   1.408       .  A
C1833      C1838   1.404   1_565  A
C1833      H1839   1.083   1_554  S
C1834      C1835   1.404       .  A
C1835      C1836   1.400       .  A
C1835      H1840   1.084       .  S
C1836      C1837   1.406       .  A
C1836      H1841   1.079       .  S
C1837      C1838   1.405   1_565  A
C1838      H1842   1.081       .  S
C1843      C1844   1.402       .  A
C1843      C1848   1.387       .  A
C1843      H1849   1.083       .  S
C1844      C1845   1.409       .  A
C1845      C1846   1.396       .  A
C1845      H1850   1.083       .  S
C1846      C1847   1.399       .  A
C1846      H1851   1.083   1_565  S
C1847      C1848   1.403       .  A
C1848      H1852   1.084       .  S
C1853      C1854   1.395       .  A
C1853      C1858   1.388       .  A
C1853      H1859   1.083       .  S
C1854      C1855   1.404       .  A
C1855      C1856   1.394       .  A
C1855      H1860   1.084       .  S
C1856      C1857   1.404       .  A
C1856      H1861   1.083       .  S
C1857      C1858   1.405       .  A
C1858      H1862   1.076       .  S
C1863      C1864   1.400       .  A
C1863      C1868   1.390       .  A
C1863      H1869   1.084       .  S
C1864      C1865   1.400       .  A
C1865      C1866   1.398       .  A
C1865      H1870   1.083       .  S
C1866      C1867   1.406       .  A
C1866      H1871   1.077       .  S
C1867      C1868   1.407       .  A
C1868      H1872   1.083       .  S
C1873      C1874   1.405       .  A
C1873      C1878   1.403       .  A
C1873      H1879   1.083       .  S
C1874      C1875   1.405       .  A
C1875      C1876   1.399       .  A
C1875      H1880   1.084       .  S
C1876      C1877   1.407       .  A
C1876      H1881   1.083       .  S
C1877      C1878   1.409       .  A
C1878      H1882   1.082       .  S
C1883      C1884   1.397       .  A
C1883      C1888   1.390       .  A
C1883      H1889   1.083       .  S
C1884      C1885   1.403       .  A
C1885      C1886   1.394       .  A
C1885      H1890   1.084       .  S
C1886      C1887   1.404       .  A
C1886      H1891   1.083       .  S
C1887      C1888   1.407       .  A
C1888      H1892   1.079       .  S
C1893      C1894   1.405       .  A
C1893      C1898   1.406       .  A
C1893      H1899   1.084       .  S
C1894      C1895   1.414       .  A
C1895      C1896   1.413       .  A
C1895      H1900   1.083       .  S
C1896      C1897   1.408       .  A
C1896      H1901   1.082       .  S
C1897      C1898   1.412       .  A
C1898      H1902   1.080       .  S
C1903      C1904   1.401       .  A
C1903      C1908   1.399       .  A
C1903      H1909   1.083       .  S
C1904      C1905   1.413       .  A
C1905      C1906   1.404       .  A
C1905      H1910   1.083       .  S
C1906      C1907   1.402       .  A
C1906      H1911   1.082       .  S
C1907      C1908   1.410       .  A
C1908      H1912   1.079       .  S
C1913      C1914   1.399       .  A
C1913      C1918   1.389       .  A
C1913      H1919   1.084       .  S
C1914      C1915   1.403       .  A
C1915      C1916   1.397       .  A
C1915      H1920   1.083       .  S
C1916      C1917   1.406       .  A
C1916      H1921   1.081       .  S
C1917      C1918   1.407       .  A
C1918      H1922   1.083       .  S
C1923      C1924   1.399       .  A
C1923      C1928   1.406       .  A
C1923      H1929   1.083       .  S
C1924      C1925   1.418       .  A
C1925      C1926   1.415       .  A
C1925      H1930   1.083       .  S
C1926      C1927   1.405       .  A
C1926      H1931   1.083       .  S
C1927      C1928   1.419       .  A
C1928      H1932   1.078       .  S
C1933      C1934   1.418       .  A
C1933      C1938   1.409       .  A
C1933      H1939   1.083       .  S
C1934      C1935   1.401       .  A
C1935      C1936   1.407       .  A
C1935      H1940   1.083       .  S
C1936      C1937   1.418       .  A
C1936      H1941   1.080       .  S
C1937      C1938   1.401       .  A
C1938      H1942   1.083       .  S
C1943      C1944   1.398       .  A
C1943      C1948   1.389       .  A
C1943      H1949   1.083       .  S
C1944      C1945   1.402       .  A
C1945      C1946   1.382       .  A
C1945      H1950   1.084       .  S
C1946      C1947   1.402       .  A
C1946      H1951   1.083       .  S
C1947      C1948   1.405       .  A
C1948      H1952   1.076       .  S
C1953      C1954   1.400       .  A
C1953      C1958   1.393       .  A
C1953      H1959   1.083       .  S
C1954      C1955   1.401       .  A
C1955      C1956   1.389       .  A
C1955      H1960   1.084       .  S
C1956      C1957   1.405       .  A
C1956      H1961   1.083       .  S
C1957      C1958   1.406       .  A
C1958      H1962   1.080       .  S
C1963      C1964   1.408       .  A
C1963      C1968   1.408       .  A
C1963      H1969   1.083       .  S
C1964      C1965   1.408       .  A
C1965      C1966   1.408       .  A
C1965      H1970   1.083       .  S
C1966      C1967   1.411       .  A
C1966      H1971   1.083       .  S
C1967      C1968   1.410       .  A
C1968      H1972   1.082       .  S
C1973      C1974   1.421       .  A
C1973      C1978   1.415       .  A
C1973      H1979   1.083       .  S
C1974      C1975   1.390       .  A
C1975      C1976   1.398       .  A
C1975      H1980   1.084       .  S
C1976      C1977   1.423       .  A
C1976      H1981   1.075       .  S
C1977      C1978   1.403       .  A
C1978      H1982   1.083       .  S
C1983      C1984   1.398       .  A
C1983      C1988   1.394       .  A
C1983      H1989   1.084       .  S
C1984      C1985   1.415       .  A
C1985      C1986   1.411       .  A
C1985      H1990   1.083       .  S
C1986      C1987   1.405       .  A
C1986      H1991   1.082       .  S
C1987      C1988   1.410       .  A
C1988      H1992   1.073       .  S
C1993      C1994   1.408       .  A
C1993      C1998   1.404       .  A
C1993      H1999   1.083       .  S
C1994      C1995   1.405       .  A
C1995      C1996   1.404       .  A
C1995      H2000   1.084       .  S
C1996      C1997   1.408       .  A
C1996      H2001   1.077       .  S
C1997      C1998   1.405       .  A
C1998      H2002   1.078       .  S
C2003      C2004   1.395       .  A
C2003      C2008   1.403       .  A
C2003      H2009   1.083       .  S
C2004      C2005   1.426       .  A
C2005      C2006   1.419       .  A
C2005      H2010   1.083       .  S
C2006      C2007   1.403       .  A
C2006      H2011   1.083       .  S
C2007      C2008   1.423       .  A
C2008      H2012   1.077       .  S
C2013      C2014   1.405       .  A
C2013      C2018   1.385       .  A
C2013      H2019   1.084       .  S
C2014      C2015   1.397       .  A
C2015      C2016   1.392       .  A
C2015      H2020   1.083       .  S
C2016      C2017   1.410       .  A
C2016      H2021   1.083       .  S
C2017      C2018   1.399       .  A
C2018      H2022   1.083       .  S
C2023      C2024   1.399       .  A
C2023      C2028   1.392       .  A
C2023      H2029   1.083       .  S
C2024      C2025   1.402       .  A
C2025      C2026   1.395       .  A
C2025      H2030   1.084       .  S
C2026      C2027   1.407       .  A
C2026      H2031   1.083       .  S
C2027      C2028   1.408       .  A
C2028      H2032   1.081       .  S
C2033      C2034   1.395       .  A
C2033      C2038   1.385       .  A
C2033      H2039   1.083       .  S
C2034      C2035   1.403       .  A
C2035      C2036   1.388       .  A
C2035      H2040   1.084       .  S
C2036      C2037   1.401       .  A
C2036      H2041   1.083       .  S
C2037      C2038   1.408       .  A
C2038      H2042   1.081       .  S
C2043      C2044   1.401       .  A
C2043      C2048   1.407       .  A
C2043      H2049   1.083       .  S
C2044      C2045   1.418       .  A
C2045      C2046   1.420       .  A
C2045      H2050   1.083       .  S
C2046      C2047   1.408       .  A
C2046      H2051   1.082       .  S
C2047      C2048   1.416       .  A
C2048      H2052   1.073       .  S
C2053      C2054   1.418       .  A
C2053      C2058   1.411       .  A
C2053      H2059   1.083       .  S
C2054      C2055   1.402       .  A
C2055      C2056   1.408       .  A
C2055      H2060   1.083       .  S
C2056      C2057   1.417       .  A
C2056      H2061   1.080       .  S
C2057      C2058   1.404       .  A
C2058      H2062   1.082       .  S
C2063      C2064   1.405       .  A
C2063      C2068   1.388       .  A
C2063      H2069   1.084       .  S
C2064      C2065   1.401       .  A
C2065      C2066   1.389       .  A
C2065      H2070   1.084       .  S
C2066      C2067   1.406       .  A
C2066      H2071   1.080       .  S
C2067      C2068   1.401       .  A
C2068      H2072   1.083       .  S
C2073      C2074   1.403       .  A
C2073      C2078   1.405       .  A
C2073      H2079   1.083       .  S
C2074      C2075   1.414       .  A
C2075      C2076   1.410       .  A
C2075      H2080   1.083       .  S
C2076      C2077   1.404       .  A
C2076      H2081   1.080       .  S
C2077      C2078   1.412       .  A
C2078      H2082   1.077       .  S
C2083      C2084   1.413       .  A
C2083      C2088   1.410       .  A
C2083      H2089   1.083       .  S
C2084      C2085   1.404       .  A
C2085      C2086   1.403       .  A
C2085      H2090   1.084       .  S
C2086      C2087   1.412       .  A
C2086      H2091   1.081       .  S
C2087      C2088   1.406       .  A
C2088      H2092   1.081       .  S
C2093      C2094   1.407       .  A
C2093      C2098   1.401       .  A
C2093      H2099   1.083       .  S
C2094      C2095   1.403       .  A
C2095      C2096   1.396       .  A
C2095      H2100   1.083       .  S
C2096      C2097   1.409       .  A
C2096      H2101   1.082       .  S
C2097      C2098   1.406       .  A
C2098      H2102   1.083       .  S
C2103      C2104   1.390       .  A
C2103      C2108   1.386       .  A
C2103      H2109   1.083       .  S
C2104      C2105   1.405       .  A
C2105      C2106   1.385       .  A
C2105      H2110   1.084       .  S
C2106      C2107   1.397       .  A
C2106      H2111   1.083       .  S
C2107      C2108   1.411       .  A
C2108      H2112   1.078       .  S
C2113      C2114   1.394       .  A
C2113      C2118   1.393       .  A
C2113      H2119   1.083       .  S
C2114      C2115   1.411       .  A
C2115      C2116   1.396       .  A
C2115      H2120   1.073       .  S
C2116      C2117   1.394       .  A
C2116      H2121   1.083       .  S
C2117      C2118   1.414       .  A
C2118      H2122   1.083       .  S
C2123      C2124   1.404       .  A
C2123      C2128   1.394       .  A
C2123      H2129   1.083       .  S
C2124      C2125   1.397       .  A
C2125      C2126   1.388       .  A
C2125      H2130   1.084       .  S
C2126      C2127   1.410       .  A
C2126      H2131   1.083       .  S
C2127      C2128   1.403       .  A
C2128      H2132   1.082       .  S
C2133      C2134   1.401       .  A
C2133      C2138   1.382       .  A
C2133      H2139   1.084       .  S
C2134      C2135   1.395       .  A
C2135      C2136   1.382       .  A
C2135      H2140   1.084       .  S
C2136      C2137   1.405       .  A
C2136      H2141   1.080       .  S
C2137      C2138   1.400       .  A
C2138      H2142   1.083       .  S
C2143      C2144   1.423       .  A
C2143      C2148   1.397       .  A
C2143      H2149   1.079       .  S
C2144      C2145   1.406       .  A
C2145      C2146   1.409       .  A
C2145      H2150   1.081       .  S
C2146      C2147   1.415       .  A
C2146      H2151   1.083       .  S
C2147      C2148   1.393       .  A
C2148      H2152   1.084       .  S
C2153      C2154   1.403       .  A
C2153      C2158   1.401       .  A
C2153      H2159   1.084       .  S
C2154      C2155   1.412       .  A
C2155      C2156   1.410       .  A
C2155      H2160   1.083       .  S
C2156      C2157   1.406       .  A
C2156      H2161   1.081       .  S
C2157      C2158   1.409       .  A
C2158      H2162   1.076       .  S
C2163      C2164   1.410       .  A
C2163      C2168   1.411       .  A
C2163      H2169   1.083   1_565  S
C2164      C2165   1.408       .  A
C2165      C2166   1.408       .  A
C2165      H2170   1.083       .  S
C2166      C2167   1.408       .  A
C2166      H2171   1.078       .  S
C2167      C2168   1.408       .  A
C2168      H2172   1.077   1_565  S
C2173      C2174   1.404       .  A
C2173      C2178   1.394       .  A
C2173      H2179   1.084       .  S
C2174      C2175   1.398       .  A
C2175      C2176   1.393       .  A
C2175      H2180   1.083       .  S
C2176      C2177   1.408       .  A
C2176      H2181   1.078       .  S
C2177      C2178   1.404       .  A
C2178      H2182   1.083       .  S
C2183      C2184   1.400       .  A
C2183      C2188   1.388       .  A
C2183      H2189   1.084       .  S
C2184      C2185   1.403       .  A
C2185      C2186   1.392       .  A
C2185      H2190   1.083       .  S
C2186      C2187   1.403       .  A
C2186      H2191   1.083       .  S
C2187      C2188   1.405       .  A
C2188      H2192   1.082       .  S
C2193      C2194   1.404       .  A
C2193      C2198   1.408       .  A
C2193      H2199   1.083       .  S
C2194      C2195   1.418       .  A
C2195      C2196   1.406       .  A
C2195      H2200   1.083       .  S
C2196      C2197   1.400       .  A
C2196      H2201   1.083   1_565  S
C2197      C2198   1.416       .  A
C2198      H2202   1.083       .  S
C2203      C2204   1.402       .  A
C2203      C2208   1.404       .  A
C2203      H2209   1.084       .  S
C2204      C2205   1.416       .  A
C2205      C2206   1.412       .  A
C2205      H2210   1.083       .  S
C2206      C2207   1.401       .  A
C2206      H2211   1.082   1_565  S
C2207      C2208   1.414       .  A
C2208      H2212   1.076       .  S
C2213      C2214   1.403       .  A
C2213      C2218   1.389       .  A
C2213      H2219   1.084       .  S
C2214      C2215   1.400       .  A
C2215      C2216   1.392       .  A
C2215      H2220   1.083       .  S
C2216      C2217   1.406       .  A
C2216      H2221   1.079       .  S
C2217      C2218   1.404       .  A
C2218      H2222   1.083       .  S
C2223      C2224   1.398       .  A
C2223      C2228   1.394       .  A
C2223      H2229   1.083       .  S
C2224      C2225   1.404       .  A
C2225      C2226   1.396       .  A
C2225      H2230   1.083       .  S
C2226      C2227   1.405       .  A
C2226      H2231   1.083       .  S
C2227      C2228   1.408       .  A
C2228      H2232   1.078       .  S
C2233      C2234   1.417       .  A
C2233      C2238   1.388       .  A
C2233      H2239   1.081       .  S
C2234      C2235   1.411       .  A
C2235      C2236   1.389       .  A
C2235      H2240   1.078       .  S
C2236      C2237   1.392       .  A
C2236      H2241   1.080       .  S
C2237      C2238   1.392       .  A
C2238      H2242   1.082       .  S
C2243      C2244   1.413       .  A
C2243      C2248   1.405       .  A
C2243      H2249   1.083       .  S
C2244      C2245   1.399       .  A
C2245      C2246   1.393       .  A
C2245      H2250   1.083       .  S
C2246      C2247   1.410       .  A
C2246      H2251   1.078       .  S
C2247      C2248   1.402       .  A
C2248      H2252   1.083       .  S
C2253      C2254   1.404       .  A
C2253      C2258   1.419       .  A
C2253      H2259   1.082       .  S
C2254      C2255   1.421       .  A
C2255      C2256   1.390       .  A
C2255      H2260   1.077       .  S
C2256      C2257   1.390       .  A
C2256      H2261   1.084       .  S
C2257      C2258   1.423       .  A
C2258      H2262   1.083       .  S
C2263      C2264   1.395       .  A
C2263      C2268   1.385       .  A
C2263      H2269   1.084       .  S
C2264      C2265   1.402       .  A
C2265      C2266   1.390       .  A
C2265      H2270   1.084       .  S
C2266      C2267   1.403       .  A
C2266      H2271   1.083       .  S
C2267      C2268   1.407       .  A
C2268      H2272   1.083       .  S
C2273      C2274   1.410       .  A
C2273      C2278   1.374       .  A
C2273      H2279   1.082       .  S
C2274      C2275   1.409       .  A
C2275      C2276   1.396       .  A
C2275      H2280   1.083       .  S
C2276      C2277   1.401       .  A
C2276      H2281   1.077   1_655  S
C2277      C2278   1.392       .  A
C2278      H2282   1.084       .  S
C2283      C2284   1.421       .  A
C2283      C2288   1.434       .  A
C2283      H2289   1.082       .  S
C2284      C2285   1.396       .  A
C2285      C2286   1.393       .  A
C2285      H2290   1.084       .  S
C2286      C2287   1.418       .  A
C2286      H2291   1.073       .  S
C2287      C2288   1.417       .  A
C2288      H2292   1.082       .  S
C2293      C2294   1.412       .  A
C2293      C2298   1.408   1_655  A
C2293      H2299   1.083       .  S
C2294      C2295   1.399       .  A
C2295      C2296   1.400       .  A
C2295      H2300   1.083       .  S
C2296      C2297   1.413       .  A
C2296      H2301   1.081       .  S
C2297      C2298   1.404   1_655  A
C2298      H2302   1.083       .  S
C2303      C2304   1.392       .  A
C2303      C2308   1.386       .  A
C2303      H2309   1.083       .  S
C2304      C2305   1.406       .  A
C2305      C2306   1.384       .  A
C2305      H2310   1.084       .  S
C2306      C2307   1.398       .  A
C2306      H2311   1.083       .  S
C2307      C2308   1.406       .  A
C2308      H2312   1.074   1_545  S
C2313      C2314   1.402       .  A
C2313      C2318   1.386       .  A
C2313      H2319   1.084       .  S
C2314      C2315   1.391       .  A
C2315      C2316   1.387       .  A
C2315      H2320   1.083   1_455  S
C2316      C2317   1.409       .  A
C2316      H2321   1.079   1_455  S
C2317      C2318   1.400       .  A
C2318      H2322   1.083       .  S
C2323      C2324   1.401       .  A
C2323      C2328   1.384       .  A
C2323      H2329   1.083       .  S
C2324      C2325   1.405   1_554  A
C2325      C2326   1.389       .  A
C2325      H2330   1.081       .  S
C2326      C2327   1.401       .  A
C2326      H2331   1.083       .  S
C2327      C2328   1.405   1_556  A
C2328      H2332   1.083       .  S
C2333      C2334   1.238       .  T
C2335      C2336   1.397       .  A
C2335      C2340   1.394       .  A
C2335      H2341   1.083       .  S
C2336      C2337   1.415       .  A
C2337      C2338   1.404       .  A
C2337      H2342   1.083       .  S
C2338      C2339   1.399       .  A
C2338      H2343   1.083       .  S
C2339      C2340   1.412       .  A
C2340      H2344   1.083       .  S
C2345      C2346   1.421       .  A
C2345      C2350   1.415       .  A
C2345      H2351   1.083       .  S
C2346      C2347   1.395       .  A
C2347      C2348   1.398       .  A
C2347      H2352   1.084       .  S
C2348      C2349   1.416       .  A
C2348      H2353   1.071       .  S
C2349      C2350   1.405       .  A
C2350      H2354   1.083       .  S
C2355      C2356   1.227       .  T
C2357      C2358   1.390       .  A
C2357      C2362   1.391       .  A
C2357      H2363   1.084   1_565  S
C2358      C2359   1.415       .  A
C2359      C2360   1.405       .  A
C2359      H2364   1.083       .  S
C2360      C2361   1.402       .  A
C2360      H2365   1.083       .  S
C2361      C2362   1.414       .  A
C2362      H2366   1.070   1_565  S
C2367      C2368   1.393       .  A
C2367      C2372   1.401       .  A
C2367      H2373   1.083       .  S
C2368      C2369   1.418       .  A
C2369      C2370   1.396       .  A
C2369      H2374   1.084       .  S
C2370      C2371   1.394       .  A
C2370      H2375   1.083       .  S
C2371      C2372   1.419       .  A
C2372      H2376   1.076       .  S
C2377      C2378   1.401       .  A
C2377      C2382   1.394       .  A
C2377      H2383   1.083       .  S
C2378      C2379   1.407       .  A
C2379      C2380   1.397       .  A
C2379      H2384   1.083       .  S
C2380      C2381   1.404       .  A
C2380      H2385   1.083       .  S
C2381      C2382   1.407       .  A
C2382      H2386   1.082       .  S
C2387      C2388   1.397       .  A
C2387      C2392   1.391       .  A
C2387      H2393   1.083       .  S
C2388      C2389   1.405       .  A
C2389      C2390   1.385       .  A
C2389      H2394   1.084       .  S
C2390      C2391   1.396       .  A
C2390      H2395   1.084       .  S
C2391      C2392   1.405       .  A
C2392      H2396   1.082       .  S
C2397      C2398   1.396       .  A
C2397      C2402   1.376       .  A
C2397      H2403   1.085       .  S
C2398      C2399   1.401       .  A
C2399      C2400   1.396       .  A
C2399      H2404   1.083       .  S
C2400      C2401   1.403       .  A
C2400      H2405   1.081   1_556  S
C2401      C2402   1.401       .  A
C2402      H2406   1.083       .  S
C2407      C2408   1.422       .  A
C2407      C2412   1.418       .  A
C2407      H2413   1.083       .  S
C2408      C2409   1.392       .  A
C2409      C2410   1.399       .  A
C2409      H2414   1.084       .  S
C2410      C2411   1.423       .  A
C2410      H2415   1.077       .  S
C2411      C2412   1.403       .  A
C2412      H2416   1.082       .  S
C2417      C2418   1.401       .  A
C2417      C2422   1.404       .  A
C2417      H2423   1.083       .  S
C2418      C2419   1.418       .  A
C2419      C2420   1.407       .  A
C2419      H2424   1.083       .  S
C2420      C2421   1.400       .  A
C2420      H2425   1.083   1_545  S
C2421      C2422   1.415       .  A
C2422      H2426   1.083       .  S
C2427      C2428   1.389       .  A
C2427      C2432   1.379       .  A
C2427      H2433   1.083       .  S
C2428      C2429   1.416       .  A
C2429      C2430   1.387       .  A
C2429      H2434   1.083       .  S
C2430      C2431   1.390       .  A
C2430      H2435   1.082       .  S
C2431      C2432   1.413       .  A
C2432      H2436   1.084       .  S
C2437      C2438   1.418       .  A
C2437      C2442   1.406       .  A
C2437      H2443   1.083       .  S
C2438      C2439   1.396       .  A
C2439      C2440   1.391       .  A
C2439      H2444   1.083       .  S
C2440      C2441   1.414       .  A
C2440      H2445   1.083       .  S
C2441      C2442   1.399       .  A
C2442      H2446   1.083   1_554  S
C2447      C2448   1.402       .  A
C2447      C2452   1.385       .  A
C2447      H2453   1.084       .  S
C2448      C2449   1.395   1_655  A
C2449      C2450   1.388       .  A
C2449      H2454   1.083       .  S
C2450      C2451   1.404   1_455  A
C2450      H2455   1.074       .  S
C2451      C2452   1.403       .  A
C2452      H2456   1.083       .  S
C2457      C2458   1.415       .  A
C2457      C2462   1.385       .  A
C2457      H2463   1.083       .  S
C2458      C2459   1.394       .  A
C2459      C2460   1.380       .  A
C2459      H2464   1.084       .  S
C2460      C2461   1.407       .  A
C2460      H2465   1.080       .  S
C2461      C2462   1.392       .  A
C2462      H2466   1.081       .  S
C2467      C2468   1.430       .  A
C2467      C2472   1.445       .  A
C2467      H2473   1.082       .  S
C2468      C2469   1.398       .  A
C2469      C2470   1.400       .  A
C2469      H2474   1.084       .  S
C2470      C2471   1.424       .  A
C2470      H2475   1.076       .  S
C2471      C2472   1.420       .  A
C2472      H2476   1.082   1_554  S
C2477      C2478   1.406       .  A
C2477      C2482   1.427       .  A
C2477      H2483   1.081       .  S
C2478      C2479   1.425       .  A
C2479      C2480   1.406       .  A
C2479      H2484   1.075       .  S
C2480      C2481   1.395       .  A
C2480      H2485   1.083       .  S
C2481      C2482   1.427       .  A
C2482      H2486   1.083       .  S
C2487      C2488   1.392       .  A
C2487      C2492   1.380       .  A
C2487      H2493   1.083       .  S
C2488      C2489   1.397       .  A
C2489      C2490   1.378       .  A
C2489      H2494   1.085       .  S
C2490      C2491   1.403       .  A
C2490      H2495   1.084       .  S
C2491      C2492   1.403       .  A
C2492      H2496   1.082       .  S
C2497      C2498   1.400       .  A
C2497      C2502   1.385       .  A
C2497      H2503   1.084       .  S
C2498      C2499   1.401   1_655  A
C2499      C2500   1.389       .  A
C2499      H2504   1.084       .  S
C2500      C2501   1.405   1_455  A
C2500      H2505   1.079       .  S
C2501      C2502   1.402       .  A
C2502      H2506   1.083       .  S
C2507      C2508   1.397       .  A
C2507      C2512   1.408       .  A
C2507      H2513   1.083       .  S
C2508      C2509   1.421       .  A
C2509      C2510   1.387       .  A
C2509      H2514   1.078       .  S
C2510      C2511   1.385       .  A
C2510      H2515   1.084       .  S
C2511      C2512   1.422       .  A
C2512      H2516   1.083       .  S
C2517      C2518   1.410       .  A
C2517      C2522   1.411       .  A
C2517      H2523   1.083       .  S
C2518      C2519   1.407       .  A
C2519      C2520   1.408       .  A
C2519      H2524   1.083       .  S
C2520      C2521   1.413       .  A
C2520      H2525   1.083       .  S
C2521      C2522   1.410       .  A
C2522      H2526   1.082       .  S
C2527      C2528   1.403       .  A
C2527      C2532   1.386       .  A
C2527      H2533   1.084       .  S
C2528      C2529   1.397       .  A
C2529      C2530   1.387       .  A
C2529      H2534   1.083       .  S
C2530      C2531   1.407       .  A
C2530      H2535   1.083       .  S
C2531      C2532   1.400       .  A
C2532      H2536   1.083       .  S
C2537      C2538   1.423       .  A
C2537      C2542   1.415       .  A
C2537      H2543   1.081       .  S
C2538      C2539   1.406       .  A
C2539      C2540   1.419       .  A
C2539      H2544   1.083       .  S
C2540      C2541   1.423       .  A
C2540      H2545   1.081       .  S
C2541      C2542   1.401       .  A
C2542      H2546   1.082       .  S
C2547      C2548   1.408       .  A
C2547      C2552   1.407       .  A
C2547      H2553   1.082       .  S
C2548      C2549   1.403       .  A
C2549      C2550   1.395       .  A
C2549      H2554   1.084       .  S
C2550      C2551   1.405       .  A
C2550      H2555   1.076       .  S
C2551      C2552   1.405       .  A
C2552      H2556   1.082       .  S
C2557      C2558   1.402       .  A
C2557      C2562   1.376       .  A
C2557      H2563   1.085       .  S
C2558      C2559   1.397   1_545  A
C2559      C2560   1.390   1_565  A
C2559      H2564   1.083       .  S
C2560      C2561   1.405       .  A
C2560      H2565   1.076   1_545  S
C2561      C2562   1.400       .  A
C2562      H2566   1.084       .  S
C2567      C2568   1.408       .  A
C2567      C2572   1.401       .  A
C2567      H2573   1.083       .  S
C2568      C2569   1.381       .  A
C2569      C2570   1.371   1_554  A
C2569      H2574   1.085   1_554  S
C2570      C2571   1.417   1_556  A
C2570      H2575   1.082       .  S
C2571      C2572   1.400       .  A
C2572      H2576   1.083       .  S
C2577      C2578   1.402       .  A
C2577      C2582   1.406       .  A
C2577      H2583   1.083       .  S
C2578      C2579   1.415       .  A
C2579      C2580   1.407       .  A
C2579      H2584   1.083       .  S
C2580      C2581   1.403       .  A
C2580      H2585   1.081       .  S
C2581      C2582   1.414       .  A
C2582      H2586   1.079       .  S
C2587      C2588   1.415       .  A
C2587      C2592   1.394       .  A
C2587      H2593   1.084       .  S
C2588      C2589   1.393       .  A
C2589      C2590   1.397       .  A
C2589      H2594   1.083       .  S
C2590      C2591   1.416       .  A
C2590      H2595   1.081       .  S
C2591      C2592   1.395       .  A
C2592      H2596   1.084       .  S
C2597      C2598   1.396       .  A
C2597      C2602   1.390       .  A
C2597      H2603   1.083       .  S
C2598      C2599   1.403       .  A
C2599      C2600   1.391       .  A
C2599      H2604   1.084       .  S
C2600      C2601   1.403       .  A
C2600      H2605   1.083       .  S
C2601      C2602   1.409       .  A
C2602      H2606   1.079       .  S
C2607      C2608   1.399       .  A
C2607      C2612   1.396       .  A
C2607      H2613   1.083       .  S
C2608      C2609   1.403       .  A
C2609      C2610   1.392       .  A
C2609      H2614   1.084       .  S
C2610      C2611   1.405       .  A
C2610      H2615   1.083       .  S
C2611      C2612   1.408       .  A
C2612      H2616   1.078       .  S
C2617      C2618   1.255       .  T
C2619      C2620   1.416       .  A
C2619      C2624   1.408       .  A
C2619      H2625   1.083       .  S
C2620      C2621   1.404       .  A
C2621      C2622   1.406       .  A
C2621      H2626   1.083       .  S
C2622      C2623   1.415       .  A
C2622      H2627   1.083       .  S
C2623      C2624   1.403       .  A
C2624      H2628   1.082       .  S
C2629      C2630   1.419       .  A
C2629      C2634   1.415       .  A
C2629      H2635   1.082       .  S
C2630      C2631   1.404       .  A
C2631      C2632   1.411       .  A
C2631      H2636   1.083       .  S
C2632      C2633   1.419       .  A
C2632      H2637   1.079       .  S
C2633      C2634   1.403       .  A
C2634      H2638   1.081   1_554  S
C2639      C2640   1.399       .  A
C2639      C2644   1.384       .  A
C2639      H2645   1.084       .  S
C2640      C2641   1.400   1_545  A
C2641      C2642   1.389       .  A
C2641      H2646   1.083       .  S
C2642      C2643   1.401   1_565  A
C2642      H2647   1.082       .  S
C2643      C2644   1.403       .  A
C2644      H2648   1.083       .  S
C2649      C2650   1.403       .  A
C2649      C2654   1.390       .  A
C2649      H2655   1.084       .  S
C2650      C2651   1.396       .  A
C2651      C2652   1.389       .  A
C2651      H2656   1.083       .  S
C2652      C2653   1.408       .  A
C2652      H2657   1.081       .  S
C2653      C2654   1.404       .  A
C2654      H2658   1.083       .  S
C2659      C2660   1.426       .  A
C2659      C2664   1.413       .  A
C2659      H2665   1.083       .  S
C2660      C2661   1.400       .  A
C2661      C2662   1.411       .  A
C2661      H2666   1.083       .  S
C2662      C2663   1.425       .  A
C2662      H2667   1.081       .  S
C2663      C2664   1.395       .  A
C2664      H2668   1.083       .  S
C2669      C2670   1.395       .  A
C2669      C2674   1.383       .  A
C2669      H2675   1.084       .  S
C2670      C2671   1.414       .  A
C2671      C2672   1.402       .  A
C2671      H2676   1.083       .  S
C2672      C2673   1.398       .  A
C2672      H2677   1.083       .  S
C2673      C2674   1.409       .  A
C2674      H2678   1.082       .  S
C2679      C2680   1.407       .  A
C2679      C2684   1.392       .  A
C2679      H2685   1.083       .  S
C2680      C2681   1.414       .  A
C2681      C2682   1.376       .  A
C2681      H2686   1.079       .  S
C2682      C2683   1.386       .  A
C2682      H2687   1.083       .  S
C2683      C2684   1.400       .  A
C2684      H2688   1.083       .  S
C2689      C2690   1.395       .  A
C2689      C2694   1.398       .  A
C2689      H2695   1.084       .  S
C2690      C2691   1.423       .  A
C2691      C2692   1.433       .  A
C2691      H2696   1.083       .  S
C2692      C2693   1.414       .  A
C2692      H2697   1.082       .  S
C2693      C2694   1.421       .  A
C2694      H2698   1.075       .  S
C2699      C2700   1.405       .  A
C2699      C2704   1.409       .  A
C2699      H2705   1.083       .  S
C2700      C2701   1.410   1_554  A
C2701      C2702   1.410       .  A
C2701      H2706   1.083       .  S
C2702      C2703   1.409   1_556  A
C2702      H2707   1.081       .  S
C2703      C2704   1.412       .  A
C2704      H2708   1.079       .  S
C2709      C2710   1.407       .  A
C2709      C2714   1.387       .  A
C2709      H2715   1.084       .  S
C2710      C2711   1.400       .  A
C2711      C2712   1.389       .  A
C2711      H2716   1.083       .  S
C2712      C2713   1.408       .  A
C2712      H2717   1.083       .  S
C2713      C2714   1.399       .  A
C2714      H2718   1.083       .  S
C2719      C2720   1.407       .  A
C2719      C2724   1.392       .  A
C2719      H2725   1.083       .  S
C2720      C2721   1.403       .  A
C2721      C2722   1.390       .  A
C2721      H2726   1.083       .  S
C2722      C2723   1.405       .  A
C2722      H2727   1.084       .  S
C2723      C2724   1.402       .  A
C2724      H2728   1.083       .  S
C2729      C2730   1.403       .  A
C2729      C2734   1.389       .  A
C2729      H2735   1.084       .  S
C2730      C2731   1.388       .  A
C2731      C2732   1.386       .  A
C2731      H2736   1.083       .  S
C2732      C2733   1.414       .  A
C2732      H2737   1.082       .  S
C2733      C2734   1.400       .  A
C2734      H2738   1.083       .  S
C2739      C2740   1.407       .  A
C2739      C2744   1.406       .  A
C2739      H2745   1.084       .  S
C2740      C2741   1.408   1_554  A
C2741      C2742   1.405       .  A
C2741      H2746   1.083       .  S
C2742      C2743   1.406   1_556  A
C2742      H2747   1.078       .  S
C2743      C2744   1.408       .  A
C2744      H2748   1.079       .  S
C2749      C2750   1.397       .  A
C2749      C2754   1.399       .  A
C2749      H2755   1.084       .  S
C2750      C2751   1.421       .  A
C2751      C2752   1.415       .  A
C2751      H2756   1.083       .  S
C2752      C2753   1.400       .  A
C2752      H2757   1.083       .  S
C2753      C2754   1.419       .  A
C2754      H2758   1.081       .  S
C2759      C2760   1.404       .  A
C2759      C2764   1.386       .  A
C2759      H2765   1.083       .  S
C2760      C2761   1.407       .  A
C2761      C2762   1.393       .  A
C2761      H2766   1.079       .  S
C2762      C2763   1.400       .  A
C2762      H2767   1.083       .  S
C2763      C2764   1.401       .  A
C2764      H2768   1.084       .  S
C2769      C2770   1.404       .  A
C2769      C2774   1.399       .  A
C2769      H2775   1.083       .  S
C2770      C2771   1.405       .  A
C2771      C2772   1.398       .  A
C2771      H2776   1.083       .  S
C2772      C2773   1.407       .  A
C2772      H2777   1.080       .  S
C2773      C2774   1.408       .  A
C2774      H2778   1.083       .  S
C2779      C2780   1.399       .  A
C2779      C2784   1.395       .  A
C2779      H2785   1.084       .  S
C2780      C2781   1.412       .  A
C2781      C2782   1.402       .  A
C2781      H2786   1.083       .  S
C2782      C2783   1.400       .  A
C2782      H2787   1.083       .  S
C2783      C2784   1.410       .  A
C2784      H2788   1.081       .  S
C2789      C2790   1.417       .  A
C2789      C2794   1.420       .  A
C2789      H2795   1.083       .  S
C2790      C2791   1.413       .  A
C2791      C2792   1.421       .  A
C2791      H2796   1.083       .  S
C2792      C2793   1.416       .  A
C2792      H2797   1.078       .  S
C2793      C2794   1.412       .  A
C2794      H2798   1.078       .  S
C2799      C2800   1.421       .  A
C2799      C2804   1.412       .  A
C2799      H2805   1.083       .  S
C2800      C2801   1.407       .  A
C2801      C2802   1.418       .  A
C2801      H2806   1.082       .  S
C2802      C2803   1.420       .  A
C2802      H2807   1.081       .  S
C2803      C2804   1.404       .  A
C2804      H2808   1.082       .  S
C2809      C2810   1.396       .  A
C2809      C2814   1.397       .  A
C2809      H2815   1.083       .  S
C2810      C2811   1.402       .  A
C2811      C2812   1.375       .  A
C2811      H2816   1.084       .  S
C2812      C2813   1.400       .  A
C2812      H2817   1.084       .  S
C2813      C2814   1.408       .  A
C2814      H2818   1.079       .  S
C2819      C2820   1.391       .  A
C2819      C2824   1.392       .  A
C2819      H2825   1.083       .  S
C2820      C2821   1.407       .  A
C2821      C2822   1.379       .  A
C2821      H2826   1.084       .  S
C2822      C2823   1.395       .  A
C2822      H2827   1.082       .  S
C2823      C2824   1.413       .  A
C2824      H2828   1.082       .  S
C2829      C2830   1.415       .  A
C2829      C2834   1.405       .  A
C2829      H2835   1.082       .  S
C2830      C2831   1.402       .  A
C2831      C2832   1.398       .  A
C2831      H2836   1.083       .  S
C2832      C2833   1.411       .  A
C2832      H2837   1.083       .  S
C2833      C2834   1.400       .  A
C2834      H2838   1.083       .  S
C2839      C2840   1.381       .  A
C2839      C2844   1.382       .  A
C2839      H2845   1.084       .  S
C2840      C2841   1.412       .  A
C2841      C2842   1.384       .  A
C2841      H2846   1.080       .  S
C2842      C2843   1.392       .  A
C2842      H2847   1.083       .  S
C2843      C2844   1.415       .  A
C2844      H2848   1.072       .  S
C2849      C2850   1.402       .  A
C2849      C2854   1.385       .  A
C2849      H2855   1.083       .  S
C2850      C2851   1.405       .  A
C2851      C2852   1.394       .  A
C2851      H2856   1.083       .  S
C2852      C2853   1.398       .  A
C2852      H2857   1.081       .  S
C2853      C2854   1.398       .  A
C2854      H2858   1.084       .  S
C2859      C2860   1.405       .  A
C2859      C2864   1.418       .  A
C2859      H2865   1.082       .  S
C2860      C2861   1.423       .  A
C2861      C2862   1.412       .  A
C2861      H2866   1.079       .  S
C2862      C2863   1.401       .  A
C2862      H2867   1.083       .  S
C2863      C2864   1.422       .  A
C2864      H2868   1.083       .  S
C2869      C2870   1.407       .  A
C2869      C2874   1.399       .  A
C2869      H2875   1.083       .  S
C2870      C2871   1.400       .  A
C2871      C2872   1.383       .  A
C2871      H2876   1.084       .  S
C2872      C2873   1.405       .  A
C2872      H2877   1.084       .  S
C2873      C2874   1.398       .  A
C2874      H2878   1.069       .  S
C2879      C2880   1.415       .  A
C2879      C2884   1.403       .  A
C2879      H2885   1.083       .  S
C2880      C2881   1.401       .  A
C2881      C2882   1.400       .  A
C2881      H2886   1.083       .  S
C2882      C2883   1.413       .  A
C2882      H2887   1.080       .  S
C2883      C2884   1.395       .  A
C2884      H2888   1.079       .  S
C2889      C2890   1.387       .  A
C2889      C2894   1.380       .  A
C2889      H2895   1.083       .  S
C2890      C2891   1.412       .  A
C2891      C2892   1.384       .  A
C2891      H2896   1.084       .  S
C2892      C2893   1.390       .  A
C2892      H2897   1.083       .  S
C2893      C2894   1.412       .  A
C2894      H2898   1.083       .  S
C2899      C2900   1.397       .  A
C2899      C2904   1.391       .  A
C2899      H2905   1.083       .  S
C2900      C2901   1.399       .  A
C2901      C2902   1.382       .  A
C2901      H2906   1.084       .  S
C2902      C2903   1.402       .  A
C2902      H2907   1.083       .  S
C2903      C2904   1.406       .  A
C2904      H2908   1.080       .  S
C2909      C2910   1.415       .  A
C2909      C2914   1.414       .  A
C2909      H2915   1.083       .  S
C2910      C2911   1.401       .  A
C2911      C2912   1.407       .  A
C2911      H2916   1.083       .  S
C2912      C2913   1.418       .  A
C2912      H2917   1.081       .  S
C2913      C2914   1.406       .  A
C2914      H2918   1.082       .  S
C2919      C2920   1.404       .  A
C2919      C2924   1.403       .  A
C2919      H2925   1.081       .  S
C2920      C2921   1.409       .  A
C2921      C2922   1.383       .  A
C2921      H2926   1.083       .  S
C2922      C2923   1.396       .  A
C2922      H2927   1.084       .  S
C2923      C2924   1.407       .  A
C2924      H2928   1.083       .  S
C2929      C2930   1.393       .  A
C2929      C2934   1.402       .  A
C2929      H2935   1.084       .  S
C2930      C2931   1.428       .  A
C2931      C2932   1.430       .  A
C2931      H2936   1.083       .  S
C2932      C2933   1.408       .  A
C2932      H2937   1.082       .  S
C2933      C2934   1.428       .  A
C2934      H2938   1.080       .  S
C2939      C2940   1.247       .  T
C2941      C2942   1.418       .  A
C2941      C2946   1.430       .  A
C2941      H2947   1.083       .  S
C2942      C2943   1.415       .  A
C2943      C2944   1.420       .  A
C2943      H2948   1.083       .  S
C2944      C2945   1.414       .  A
C2944      H2949   1.082       .  S
C2945      C2946   1.417       .  A
C2946      H2950   1.081       .  S
C2951      C2952   1.409       .  A
C2951      C2956   1.391       .  A
C2951      H2957   1.083       .  S
C2952      C2953   1.402       .  A
C2953      C2954   1.387       .  A
C2953      H2958   1.083       .  S
C2954      C2955   1.403       .  A
C2954      H2959   1.084       .  S
C2955      C2956   1.399       .  A
C2956      H2960   1.083       .  S
C2961      C2962   1.430       .  A
C2961      C2966   1.449       .  A
C2961      H2967   1.082       .  S
C2962      C2963   1.405       .  A
C2963      C2964   1.407       .  A
C2963      H2968   1.084       .  S
C2964      C2965   1.422       .  A
C2964      H2969   1.076       .  S
C2965      C2966   1.423       .  A
C2966      H2970   1.082       .  S
C2971      C2972   1.404       .  A
C2971      C2976   1.379       .  A
C2971      H2977   1.083       .  S
C2972      C2973   1.402       .  A
C2973      C2974   1.387       .  A
C2973      H2978   1.083       .  S
C2974      C2975   1.403       .  A
C2974      H2979   1.080       .  S
C2975      C2976   1.400       .  A
C2976      H2980   1.083       .  S
C2981      C2982   1.402       .  A
C2981      C2986   1.384       .  A
C2981      H2987   1.084       .  S
C2982      C2983   1.392       .  A
C2983      C2984   1.386       .  A
C2983      H2988   1.083       .  S
C2984      C2985   1.406       .  A
C2984      H2989   1.075       .  S
C2985      C2986   1.401       .  A
C2986      H2990   1.083       .  S
C2991      C2992   1.396       .  A
C2991      C2996   1.402       .  A
C2991      H2997   1.083       .  S
C2992      C2993   1.423       .  A
C2993      C2994   1.418       .  A
C2993      H2998   1.083       .  S
C2994      C2995   1.405       .  A
C2994      H2999   1.083       .  S
C2995      C2996   1.420       .  A
C2996      H3000   1.078       .  S
C3001      C3002   1.419       .  A
C3001      C3006   1.414       .  A
C3001      H3007   1.083       .  S
C3002      C3003   1.400       .  A
C3003      C3004   1.411       .  A
C3003      H3008   1.083       .  S
C3004      C3005   1.419       .  A
C3004      H3009   1.079       .  S
C3005      C3006   1.406       .  A
C3006      H3010   1.083       .  S
C3011      C3012   1.411       .  A
C3011      C3016   1.418       .  A
C3011      H3017   1.082       .  S
C3012      C3013   1.402       .  A
C3013      C3014   1.388       .  A
C3013      H3018   1.084       .  S
C3014      C3015   1.409       .  A
C3014      H3019   1.083       .  S
C3015      C3016   1.410       .  A
C3016      H3020   1.081       .  S
C3021      C3022   1.409       .  A
C3021      C3026   1.388       .  A
C3021      H3027   1.083       .  S
C3022      C3023   1.399       .  A
C3023      C3024   1.389       .  A
C3023      H3028   1.083       .  S
C3024      C3025   1.404       .  A
C3024      H3029   1.081       .  S
C3025      C3026   1.394       .  A
C3026      H3030   1.084       .  S
C3031      C3032   1.404       .  A
C3031      C3036   1.391       .  A
C3031      H3037   1.084       .  S
C3032      C3033   1.407       .  A
C3033      C3034   1.411       .  A
C3033      H3038   1.082       .  S
C3034      C3035   1.411       .  A
C3034      H3039   1.083       .  S
C3035      C3036   1.407       .  A
C3036      H3040   1.083       .  S
C3041      C3042   1.413       .  A
C3041      C3046   1.410       .  A
C3041      H3047   1.083       .  S
C3042      C3043   1.413       .  A
C3043      C3044   1.420       .  A
C3043      H3048   1.083       .  S
C3044      C3045   1.415       .  A
C3044      H3049   1.081       .  S
C3045      C3046   1.410       .  A
C3046      H3050   1.082       .  S
C3051      C3052   1.402       .  A
C3051      C3056   1.386       .  A
C3051      H3057   1.084       .  S
C3052      C3053   1.406       .  A
C3053      C3054   1.402       .  A
C3053      H3058   1.083       .  S
C3054      C3055   1.404       .  A
C3054      H3059   1.082       .  S
C3055      C3056   1.402       .  A
C3056      H3060   1.083       .  S
C3061      C3062   1.410       .  A
C3061      C3066   1.413       .  A
C3061      H3067   1.083       .  S
C3062      C3063   1.405       .  A
C3063      C3064   1.403       .  A
C3063      H3068   1.083       .  S
C3064      C3065   1.411       .  A
C3064      H3069   1.083       .  S
C3065      C3066   1.410       .  A
C3066      H3070   1.083       .  S
C3071      C3072   1.402       .  A
C3071      C3076   1.389       .  A
C3071      H3077   1.084       .  S
C3072      C3073   1.403       .  A
C3073      C3074   1.400       .  A
C3073      H3078   1.083       .  S
C3074      C3075   1.405       .  A
C3074      H3079   1.083       .  S
C3075      C3076   1.404       .  A
C3076      H3080   1.083       .  S
C3081      C3082   1.408       .  A
C3081      C3086   1.387       .  A
C3081      H3087   1.083       .  S
C3082      C3083   1.397       .  A
C3083      C3084   1.386       .  A
C3083      H3088   1.084       .  S
C3084      C3085   1.408       .  A
C3084      H3089   1.078       .  S
C3085      C3086   1.398       .  A
C3086      H3090   1.083       .  S
C3091      C3092   1.397       .  A
C3091      C3096   1.412       .  A
C3091      H3097   1.083       .  S
C3092      C3093   1.435       .  A
C3093      C3094   1.425       .  A
C3093      H3098   1.082       .  S
C3094      C3095   1.402       .  A
C3094      H3099   1.082       .  S
C3095      C3096   1.432       .  A
C3096      H3100   1.082       .  S
C3101      C3102   1.421       .  A
C3101      C3106   1.410       .  A
C3101      H3107   1.081       .  S
C3102      C3103   1.398       .  A
C3103      C3104   1.403       .  A
C3103      H3108   1.082       .  S
C3104      C3105   1.416       .  A
C3104      H3109   1.067       .  S
C3105      C3106   1.402       .  A
C3106      H3110   1.082       .  S
C3111      C3112   1.393       .  A
C3111      C3116   1.381       .  A
C3111      H3117   1.083       .  S
C3112      C3113   1.404       .  A
C3113      C3114   1.385       .  A
C3113      H3118   1.084       .  S
C3114      C3115   1.397       .  A
C3114      H3119   1.084       .  S
C3115      C3116   1.407       .  A
C3116      H3120   1.083       .  S
C3121      C3122   1.414       .  A
C3121      C3126   1.401       .  A
C3121      H3127   1.083       .  S
C3122      C3123   1.395       .  A
C3123      C3124   1.378       .  A
C3123      H3128   1.083       .  S
C3124      C3125   1.411       .  A
C3124      H3129   1.084       .  S
C3125      C3126   1.398       .  A
C3126      H3130   1.083       .  S
C3131      C3132   1.410       .  A
C3131      C3136   1.395       .  A
C3131      H3137   1.083       .  S
C3132      C3133   1.390       .  A
C3133      C3134   1.368       .  A
C3133      H3138   1.084       .  S
C3134      C3135   1.407       .  A
C3134      H3139   1.084       .  S
C3135      C3136   1.396       .  A
C3136      H3140   1.083       .  S
C3141      C3142   1.398       .  A
C3141      C3146   1.385       .  A
C3141      H3147   1.084       .  S
C3142      C3143   1.399       .  A
C3143      C3144   1.381       .  A
C3143      H3148   1.084       .  S
C3144      C3145   1.401       .  A
C3144      H3149   1.083       .  S
C3145      C3146   1.404       .  A
C3146      H3150   1.083       .  S
C3151      C3152   1.422       .  A
C3151      C3156   1.401       .  A
C3151      H3157   1.081       .  S
C3152      C3153   1.395       .  A
C3153      C3154   1.385       .  A
C3153      H3158   1.081       .  S
C3154      C3155   1.415       .  A
C3154      H3159   1.084       .  S
C3155      C3156   1.393       .  A
C3156      H3160   1.083       .  S
C3161      C3162   1.406       .  A
C3161      C3166   1.396       .  A
C3161      H3167   1.084       .  S
C3162      C3163   1.402       .  A
C3163      C3164   1.401       .  A
C3163      H3168   1.083       .  S
C3164      C3165   1.408       .  A
C3164      H3169   1.079       .  S
C3165      C3166   1.406       .  A
C3166      H3170   1.083       .  S
C3171      C3172   1.394       .  A
C3171      C3176   1.380       .  A
C3171      H3177   1.084       .  S
C3172      C3173   1.405       .  A
C3173      C3174   1.396       .  A
C3173      H3178   1.083       .  S
C3174      C3175   1.400       .  A
C3174      H3179   1.083       .  S
C3175      C3176   1.403       .  A
C3176      H3180   1.075       .  S
C3181      C3182   1.402       .  A
C3181      C3186   1.401       .  A
C3181      H3187   1.083       .  S
C3182      C3183   1.413       .  A
C3183      C3184   1.407       .  A
C3183      H3188   1.083       .  S
C3184      C3185   1.403       .  A
C3184      H3189   1.083       .  S
C3185      C3186   1.411       .  A
C3186      H3190   1.080       .  S
C3191      C3192   1.402       .  A
C3191      C3196   1.395       .  A
C3191      H3197   1.083       .  S
C3192      C3193   1.410       .  A
C3193      C3194   1.402       .  A
C3193      H3198   1.083       .  S
C3194      C3195   1.402       .  A
C3194      H3199   1.082       .  S
C3195      C3196   1.406       .  A
C3196      H3200   1.079       .  S
C3201      C3202   1.406       .  A
C3201      C3206   1.424       .  A
C3201      H3207   1.083       .  S
C3202      C3203   1.428       .  A
C3203      C3204   1.422       .  A
C3203      H3208   1.082       .  S
C3204      C3205   1.403       .  A
C3204      H3209   1.082       .  S
C3205      C3206   1.428       .  A
C3206      H3210   1.079       .  S
C3211      C3212   1.383       .  A
C3211      C3216   1.380       .  A
C3211      H3217   1.083       .  S
C3212      C3213   1.411       .  A
C3213      C3214   1.383       .  A
C3213      H3218   1.083       .  S
C3214      C3215   1.391       .  A
C3214      H3219   1.083       .  S
C3215      C3216   1.415       .  A
C3216      H3220   1.079       .  S
C3221      C3222   1.403       .  A
C3221      C3226   1.394       .  A
C3221      H3227   1.084       .  S
C3222      C3223   1.405       .  A
C3223      C3224   1.400       .  A
C3223      H3228   1.083       .  S
C3224      C3225   1.408       .  A
C3224      H3229   1.083       .  S
C3225      C3226   1.407       .  A
C3226      H3230   1.083       .  S
C3231      C3232   1.400       .  A
C3231      C3236   1.395       .  A
C3231      H3237   1.083       .  S
C3232      C3233   1.410       .  A
C3233      C3234   1.401       .  A
C3233      H3238   1.083       .  S
C3234      C3235   1.401       .  A
C3234      H3239   1.083       .  S
C3235      C3236   1.407       .  A
C3236      H3240   1.082       .  S
C3241      C3242   1.401       .  A
C3241      C3246   1.378       .  A
C3241      H3247   1.080       .  S
C3242      C3243   1.417       .  A
C3243      C3244   1.399       .  A
C3243      H3248   1.082       .  S
C3244      C3245   1.397       .  A
C3244      H3249   1.083       .  S
C3245      C3246   1.408       .  A
C3246      H3250   1.084       .  S
C3251      C3252   1.392       .  A
C3251      C3256   1.391       .  A
C3251      H3257   1.084       .  S
C3252      C3253   1.417       .  A
C3253      C3254   1.414       .  A
C3253      H3258   1.083       .  S
C3254      C3255   1.403       .  A
C3254      H3259   1.082       .  S
C3255      C3256   1.417       .  A
C3256      H3260   1.082       .  S
C3261      C3262   1.405       .  A
C3261      C3266   1.392       .  A
C3261      H3267   1.083       .  S
C3262      C3263   1.406       .  A
C3263      C3264   1.386       .  A
C3263      H3268   1.083       .  S
C3264      C3265   1.396       .  A
C3264      H3269   1.080       .  S
C3265      C3266   1.400       .  A
C3266      H3270   1.083       .  S
C3271      C3272   1.406       .  A
C3271      C3276   1.400       .  A
C3271      H3277   1.083       .  S
C3272      C3273   1.402       .  A
C3273      C3274   1.392       .  A
C3273      H3278   1.084       .  S
C3274      C3275   1.407       .  A
C3274      H3279   1.083       .  S
C3275      C3276   1.406       .  A
C3276      H3280   1.081       .  S
C3281      C3282   1.251       .  T
C3283      C3284   1.418       .  A
C3283      C3288   1.409       .  A
C3283      H3289   1.084       .  S
C3284      C3285   1.397       .  A
C3285      C3286   1.411       .  A
C3285      H3290   1.081       .  S
C3286      C3287   1.419       .  A
C3286      H3291   1.083       .  S
C3287      C3288   1.404       .  A
C3288      H3292   1.083       .  S
C3293      C3294   1.406       .  A
C3293      C3298   1.405       .  A
C3293      H3299   1.084       .  S
C3294      C3295   1.412       .  A
C3295      C3296   1.412       .  A
C3295      H3300   1.083       .  S
C3296      C3297   1.407       .  A
C3296      H3301   1.080       .  S
C3297      C3298   1.410       .  A
C3298      H3302   1.076       .  S
C3303      C3304   1.385       .  A
C3303      C3308   1.379       .  A
C3303      H3309   1.084       .  S
C3304      C3305   1.411       .  A
C3305      C3306   1.394       .  A
C3305      H3310   1.084       .  S
C3306      C3307   1.395       .  A
C3306      H3311   1.083       .  S
C3307      C3308   1.414       .  A
C3308      H3312   1.082       .  S
C3313      C3314   1.402       .  A
C3313      C3318   1.382       .  A
C3313      H3319   1.084       .  S
C3314      C3315   1.402       .  A
C3315      C3316   1.396       .  A
C3315      H3320   1.083   1_455  S
C3316      C3317   1.407       .  A
C3316      H3321   1.081       .  S
C3317      C3318   1.403       .  A
C3318      H3322   1.083       .  S
C3323      C3324   1.400       .  A
C3323      C3328   1.407       .  A
C3323      H3329   1.083       .  S
C3324      C3325   1.414       .  A
C3325      C3326   1.400       .  A
C3325      H3330   1.083       .  S
C3326      C3327   1.399       .  A
C3326      H3331   1.083       .  S
C3327      C3328   1.415       .  A
C3328      H3332   1.083       .  S
C3333      C3334   1.399       .  A
C3333      C3338   1.390       .  A
C3333      H3339   1.083   1_455  S
C3334      C3335   1.403       .  A
C3335      C3336   1.387       .  A
C3335      H3340   1.084       .  S
C3336      C3337   1.403       .  A
C3336      H3341   1.083       .  S
C3337      C3338   1.407       .  A
C3338      H3342   1.083       .  S
C3343      C3344   1.389       .  A
C3343      C3348   1.386       .  A
C3343      H3349   1.083       .  S
C3344      C3345   1.410       .  A
C3345      C3346   1.375       .  A
C3345      H3350   1.082       .  S
C3346      C3347   1.391       .  A
C3346      H3351   1.084       .  S
C3347      C3348   1.408       .  A
C3348      H3352   1.077       .  S
C3353      C3354   1.393       .  A
C3353      C3358   1.398       .  A
C3353      H3359   1.084       .  S
C3354      C3355   1.422   1_556  A
C3355      C3356   1.431       .  A
C3355      H3360   1.083       .  S
C3356      C3357   1.414       .  A
C3356      H3361   1.082       .  S
C3357      C3358   1.422   1_554  A
C3358      H3362   1.071       .  S
C3363      C3364   1.398       .  A
C3363      C3368   1.402       .  A
C3363      H3369   1.084       .  S
C3364      C3365   1.435       .  A
C3365      C3366   1.453       .  A
C3365      H3370   1.082       .  S
C3366      C3367   1.422       .  A
C3366      H3371   1.082       .  S
C3367      C3368   1.427       .  A
C3368      H3372   1.075       .  S
C3373      C3374   1.399       .  A
C3373      C3378   1.376       .  A
C3373      H3379   1.084       .  S
C3374      C3375   1.405       .  A
C3375      C3376   1.394       .  A
C3375      H3380   1.083       .  S
C3376      C3377   1.404       .  A
C3376      H3381   1.082       .  S
C3377      C3378   1.402       .  A
C3378      H3382   1.081   1_554  S
C3383      C3384   1.218       .  T
C3385      C3386   1.404       .  A
C3385      C3390   1.387       .  A
C3385      H3391   1.084       .  S
C3386      C3387   1.399       .  A
C3387      C3388   1.391       .  A
C3387      H3392   1.083       .  S
C3388      C3389   1.407       .  A
C3388      H3393   1.079       .  S
C3389      C3390   1.402       .  A
C3390      H3394   1.083       .  S
C3395      C3396   1.392       .  A
C3395      C3400   1.398       .  A
C3395      H3401   1.083   1_545  S
C3396      C3397   1.419       .  A
C3397      C3398   1.411       .  A
C3397      H3402   1.084       .  S
C3398      C3399   1.402       .  A
C3398      H3403   1.083       .  S
C3399      C3400   1.417       .  A
C3400      H3404   1.075   1_545  S
C3405      C3406   1.417       .  A
C3405      C3410   1.406       .  A
C3405      H3411   1.084       .  S
C3406      C3407   1.396       .  A
C3407      C3408   1.402       .  A
C3407      H3412   1.083       .  S
C3408      C3409   1.418       .  A
C3408      H3413   1.080       .  S
C3409      C3410   1.401       .  A
C3410      H3414   1.083       .  S
C3415      C3416   1.402       .  A
C3415      C3420   1.393       .  A
C3415      H3421   1.084       .  S
C3416      C3417   1.405       .  A
C3417      C3418   1.400       .  A
C3417      H3422   1.083       .  S
C3418      C3419   1.404       .  A
C3418      H3423   1.081       .  S
C3419      C3420   1.402       .  A
C3420      H3424   1.078       .  S
C3425      C3426   1.407       .  A
C3425      C3430   1.395       .  A
C3425      H3431   1.083       .  S
C3426      C3427   1.405       .  A
C3427      C3428   1.389       .  A
C3427      H3432   1.083       .  S
C3428      C3429   1.401       .  A
C3428      H3433   1.083       .  S
C3429      C3430   1.401       .  A
C3430      H3434   1.084       .  S
C3435      C3436   1.406   1_565  A
C3435      C3440   1.395       .  A
C3435      H3441   1.084       .  S
C3436      C3437   1.398       .  A
C3437      C3438   1.388       .  A
C3437      H3442   1.084       .  S
C3438      C3439   1.407   1_545  A
C3438      H3443   1.079       .  S
C3439      C3440   1.401       .  A
C3440      H3444   1.083       .  S
C3445      C3446   1.403       .  A
C3445      C3450   1.406       .  A
C3445      H3451   1.083       .  S
C3446      C3447   1.414   1_655  A
C3447      C3448   1.411   1_455  A
C3447      H3452   1.083       .  S
C3448      C3449   1.407       .  A
C3448      H3453   1.081   1_655  S
C3449      C3450   1.412       .  A
C3450      H3454   1.077       .  S
C3455      C3456   1.401       .  A
C3455      C3460   1.402       .  A
C3455      H3461   1.083       .  S
C3456      C3457   1.415       .  A
C3457      C3458   1.409       .  A
C3457      H3462   1.083       .  S
C3458      C3459   1.405       .  A
C3458      H3463   1.081       .  S
C3459      C3460   1.412       .  A
C3460      H3464   1.078       .  S
C3465      C3466   1.398       .  A
C3465      C3470   1.388   1_545  A
C3465      H3471   1.083       .  S
C3466      C3467   1.405   1_545  A
C3467      C3468   1.382       .  A
C3467      H3472   1.084       .  S
C3468      C3469   1.400       .  A
C3468      H3473   1.083       .  S
C3469      C3470   1.405       .  A
C3470      H3474   1.077   1_565  S
C3475      C3476   1.407       .  A
C3475      C3480   1.405       .  A
C3475      H3481   1.083       .  S
C3476      C3477   1.410       .  A
C3477      C3478   1.395       .  A
C3477      H3482   1.082       .  S
C3478      C3479   1.401       .  A
C3478      H3483   1.083       .  S
C3479      C3480   1.408       .  A
C3480      H3484   1.083       .  S
C3485      C3486   1.416       .  A
C3485      C3490   1.397       .  A
C3485      H3491   1.081       .  S
C3486      C3487   1.400       .  A
C3487      C3488   1.387       .  A
C3487      H3492   1.082       .  S
C3488      C3489   1.410       .  A
C3488      H3493   1.083       .  S
C3489      C3490   1.391       .  A
C3490      H3494   1.078       .  S
C3495      C3496   1.397       .  A
C3495      C3500   1.382       .  A
C3495      H3501   1.084       .  S
C3496      C3497   1.410       .  A
C3497      C3498   1.397       .  A
C3497      H3502   1.083       .  S
C3498      C3499   1.397       .  A
C3498      H3503   1.083       .  S
C3499      C3500   1.405       .  A
C3500      H3504   1.083       .  S
C3505      C3506   1.401       .  A
C3505      C3510   1.391       .  A
C3505      H3511   1.084       .  S
C3506      C3507   1.396   1_655  A
C3507      C3508   1.387       .  A
C3507      H3512   1.084       .  S
C3508      C3509   1.407   1_455  A
C3508      H3513   1.078       .  S
C3509      C3510   1.404       .  A
C3510      H3514   1.083       .  S
C3515      C3516   1.399       .  A
C3515      C3520   1.385       .  A
C3515      H3521   1.084       .  S
C3516      C3517   1.398       .  A
C3517      C3518   1.392       .  A
C3517      H3522   1.083   1_556  S
C3518      C3519   1.405       .  A
C3518      H3523   1.081   1_556  S
C3519      C3520   1.402       .  A
C3520      H3524   1.083       .  S
C3525      C3526   1.403       .  A
C3525      C3530   1.399       .  A
C3525      H3531   1.084       .  S
C3526      C3527   1.411   1_655  A
C3527      C3528   1.409   1_455  A
C3527      H3532   1.083       .  S
C3528      C3529   1.406       .  A
C3528      H3533   1.081   1_655  S
C3529      C3530   1.407       .  A
C3530      H3534   1.075       .  S
C3535      C3536   1.419       .  A
C3535      C3540   1.414       .  A
C3535      H3541   1.083       .  S
C3536      C3537   1.407       .  A
C3537      C3538   1.416       .  A
C3537      H3542   1.083       .  S
C3538      C3539   1.419       .  A
C3538      H3543   1.080       .  S
C3539      C3540   1.407       .  A
C3540      H3544   1.081       .  S
C3545      C3546   1.404       .  A
C3545      C3550   1.402       .  A
C3545      H3551   1.083       .  S
C3546      C3547   1.406       .  A
C3547      C3548   1.398       .  A
C3547      H3552   1.083       .  S
C3548      C3549   1.407       .  A
C3548      H3553   1.083       .  S
C3549      C3550   1.410       .  A
C3550      H3554   1.083       .  S
C3555      C3556   1.402       .  A
C3555      C3560   1.385       .  A
C3555      H3561   1.084       .  S
C3556      C3557   1.400       .  A
C3557      C3558   1.392       .  A
C3557      H3562   1.083       .  S
C3558      C3559   1.405       .  A
C3558      H3563   1.078       .  S
C3559      C3560   1.403       .  A
C3560      H3564   1.083       .  S
C3565      C3566   1.398       .  A
C3565      C3570   1.408       .  A
C3565      H3571   1.083       .  S
C3566      C3567   1.421       .  A
C3567      C3568   1.409       .  A
C3567      H3572   1.084       .  S
C3568      C3569   1.401       .  A
C3568      H3573   1.083       .  S
C3569      C3570   1.421       .  A
C3570      H3574   1.079       .  S
C3575      C3576   1.416       .  A
C3575      C3580   1.414       .  A
C3575      H3581   1.083       .  S
C3576      C3577   1.404       .  A
C3577      C3578   1.406       .  A
C3577      H3582   1.083       .  S
C3578      C3579   1.413       .  A
C3578      H3583   1.078       .  S
C3579      C3580   1.407       .  A
C3580      H3584   1.081       .  S
C3585      C3586   1.405       .  A
C3585      C3590   1.389       .  A
C3585      H3591   1.083       .  S
C3586      C3587   1.400       .  A
C3587      C3588   1.387       .  A
C3587      H3592   1.083   1_565  S
C3588      C3589   1.405       .  A
C3588      H3593   1.084       .  S
C3589      C3590   1.398       .  A
C3590      H3594   1.084       .  S
C3595      C3596   1.403       .  A
C3595      C3600   1.387       .  A
C3595      H3601   1.084       .  S
C3596      C3597   1.399       .  A
C3597      C3598   1.392       .  A
C3597      H3602   1.083       .  S
C3598      C3599   1.403       .  A
C3598      H3603   1.072       .  S
C3599      C3600   1.404       .  A
C3600      H3604   1.083       .  S
C3605      C3606   1.414       .  A
C3605      C3610   1.403       .  A
C3605      H3611   1.083       .  S
C3606      C3607   1.396       .  A
C3607      C3608   1.387       .  A
C3607      H3612   1.084       .  S
C3608      C3609   1.409       .  A
C3608      H3613   1.082       .  S
C3609      C3610   1.399       .  A
C3610      H3614   1.083       .  S
C3615      C3616   1.418       .  A
C3615      C3620   1.408       .  A
C3615      H3621   1.083       .  S
C3616      C3617   1.402       .  A
C3617      C3618   1.409       .  A
C3617      H3622   1.083       .  S
C3618      C3619   1.417       .  A
C3618      H3623   1.080       .  S
C3619      C3620   1.400       .  A
C3620      H3624   1.082       .  S
C3625      C3626   1.393   1_545  A
C3625      C3630   1.389       .  A
C3625      H3631   1.083       .  S
C3626      C3627   1.403       .  A
C3627      C3628   1.394       .  A
C3627      H3632   1.084       .  S
C3628      C3629   1.404       .  A
C3628      H3633   1.083       .  S
C3629      C3630   1.411   1_565  A
C3630      H3634   1.082       .  S
C3635      C3636   1.405       .  A
C3635      C3640   1.399       .  A
C3635      H3641   1.083       .  S
C3636      C3637   1.399       .  A
C3637      C3638   1.388       .  A
C3637      H3642   1.084       .  S
C3638      C3639   1.407       .  A
C3638      H3643   1.083       .  S
C3639      C3640   1.406       .  A
C3640      H3644   1.081       .  S
C3645      C3646   1.220       .  T
C3647      C3648   1.230       .  T
C3649      C3650   1.230       .  T
C3651      C3652   1.228       .  T
C3653      C3654   1.209       .  T
C3655      C3656   1.209       .  T
C3657      C3658   1.199       .  T
C3659      C3660   1.204       .  T
C3661      C3662   1.204       .  T
C3663      C3664   1.212       .  T
C3665      C3666   1.203       .  T
C3667      C3668   1.201       .  T
C3669      C3670   1.204       .  T
C3671      C3672   1.211       .  T
C3673      C3674   1.214       .  T
C3675      C3676   1.233       .  T
C3677      C3678   1.219       .  T
C3679      C3680   1.221       .  T
C3681      C3682   1.238       .  T
C3683      C3684   1.223       .  T
C3685      C3686   1.219       .  T
C3687      C3688   1.231       .  T
C3689      C3690   1.218       .  T
C3691      C3692   1.227       .  T
C3693      C3694   1.240       .  T
C3695      C3696   1.247       .  T
C3697      C3698   1.248   1_556  T
C3699      C3700   1.228       .  T
C3701      C3702   1.224       .  T
C3703      C3704   1.250       .  T
C3705      C3706   1.203       .  T
C3707      C3708   1.198       .  T
C3709      C3710   1.205       .  T
C3711      C3712   1.212       .  T
C3713      C3714   1.201       .  T
C3715      C3716   1.198       .  T
C3717      C3718   1.231       .  T
C3719      C3720   1.212       .  T
C3721      C3722   1.191       .  T
C3723      C3724   1.208       .  T
C3725      C3726   1.221       .  T
C3727      C3728   1.205       .  T
C3729      C3730   1.241       .  T
C3731      C3732   1.239       .  T
C3733      C3734   1.237       .  T
C3735      C3736   1.254       .  T
C3737      C3738   1.236       .  T
C3739      C3740   1.247       .  T
C3741      C3742   1.224       .  T
C3743      C3744   1.225       .  T
C3745      C3746   1.221       .  T
C3747      C3748   1.244       .  T
C3749      C3750   1.221       .  T
C3751      C3752   1.246       .  T
C3753      C3754   1.239       .  T
C3755      C3756   1.243       .  T
C3757      C3758   1.231       .  T
C3759      C3760   1.233       .  T
C3761      C3762   1.238       .  T
C3763      C3764   1.241       .  T
C3765      C3766   1.189       .  T
C3767      C3768   1.186       .  T
C3769      C3770   1.191       .  T
C3771      C3772   1.195       .  T
C3773      C3774   1.195       .  T
C3775      C3776   1.198   1_655  T
C3777      C3778   1.234       .  T
C3779      C3780   1.244       .  T
C3781      C3782   1.215       .  T
C3783      C3784   1.196       .  T
C3785      C3786   1.211       .  T
C3787      C3788   1.208       .  T
C3789      C3790   1.241       .  T
C3791      C3792   1.247       .  T
C3793      C3794   1.249       .  T
C3795      C3796   1.251       .  T
C3797      C3798   1.245       .  T
C3799      C3800   1.254       .  T
C3801      C3802   1.242       .  T
C3803      C3804   1.219       .  T
C3805      C3806   1.236       .  T
C3807      C3808   1.228       .  T
C3809      C3810   1.209       .  T
C3811      C3812   1.229       .  T
C3813      C3814   1.212       .  T
C3815      C3816   1.209       .  T
C3817      C3818   1.216       .  T
C3819      C3820   1.207       .  T
C3821      C3822   1.204       .  T
C3823      C3824   1.208       .  T
