geometry optimzed in LAMMPS
_audit_creation_date              2020-11-30 
_audit_creation_method            'lammps2cif' 
_symmetry_space_group_name_H-M    'P1' 
_symmetry_Int_Tables_number       1 
_symmetry_cell_setting            triclinic 
loop_ 
_symmetry_equiv_pos_as_xyz 
  x,y,z 
_cell_length_a                    79.6207832 
_cell_length_b                    79.63316874034922 
_cell_length_c                    46.07070489656599 
_cell_angle_alpha                 90.77197101693947 
_cell_angle_beta                  89.21394454232569 
_cell_angle_gamma                 121.66230858227965 
loop_ 
_atom_site_label 
_atom_site_type_symbol 
_atom_site_fract_x 
_atom_site_fract_y 
_atom_site_fract_z 
_atom_site_charge 
N1          N  0.76094301  0.70621581  0.23518682    -0.25400
N2          N  0.75798448  0.70704400  0.26338886    -0.33300
C3          C  0.74881545  0.71703149  0.26786958     0.02900
C4          C  0.74587158  0.72278514  0.24130533     0.08900
C5          C  0.75367940  0.71572734  0.22099237    -0.04200
H6          H  0.74440597  0.71967028  0.28892440     0.09600
H7          H  0.75386635  0.71718126  0.19765643     0.10800
Cu8        Cu  0.76567257  0.69406756  0.29497223     0.44200
Cu9        Cu  0.77423431  0.69161391  0.21741895     0.42000
Cu10       Cu  0.78718781  0.66671293  0.27036312     0.43900
N11         N  0.77306257  0.67871687  0.32265700    -0.32800
N12         N  0.78092181  0.66850706  0.31354108    -0.27100
C13         C  0.78303974  0.65937056  0.33628230    -0.03200
C14         C  0.77624165  0.66419672  0.36075984     0.09000
C15         C  0.76996054  0.67638927  0.35147431     0.02800
H16         H  0.78855124  0.64952331  0.33490415     0.10500
H17         H  0.76307193  0.68259196  0.36447030     0.09600
N18         N  0.79185779  0.66636892  0.22620435    -0.34300
N19         N  0.78723744  0.67530157  0.20666319    -0.26500
C20         C  0.79202344  0.67167913  0.18009078    -0.01700
C21         C  0.79996542  0.65997477  0.18336616     0.06900
C22         C  0.79964809  0.65689918  0.21274311     0.05000
H23         H  0.78973944  0.67701677  0.15995804     0.10100
H24         H  0.80455049  0.64827009  0.22359995     0.08900
N25         N  0.85786838  0.59080491  0.06775479    -0.25400
N26         N  0.86070530  0.58997412  0.03951378    -0.33300
C27         C  0.86976723  0.57989899  0.03484318     0.02900
C28         C  0.87276739  0.57408899  0.06132362     0.08900
C29         C  0.86510341  0.58120677  0.08178367    -0.04200
H30         H  0.87409497  0.57726518  0.01371983     0.09600
H31         H  0.86501966  0.57975715  0.10510943     0.10800
Cu32       Cu  0.85307366  0.60314346  0.00815482     0.44200
Cu33       Cu  0.84482034  0.60557213  0.08579000     0.42000
Cu34       Cu  0.83199935  0.63082419  0.03320399     0.43900
N35         N  0.84590409  0.61878280  0.98069112    -0.32800
N36         N  0.83821895  0.62912245  0.98995503    -0.27100
C37         C  0.83623916  0.63843207  0.96731591    -0.03200
C38         C  0.84294641  0.63358323  0.94275211     0.09000
C39         C  0.84902647  0.62119584  0.95188596     0.02800
H40         H  0.83087786  0.64840096  0.96882017     0.10500
H41         H  0.85579354  0.61491068  0.93879343     0.09600
N42         N  0.82738916  0.63103221  0.07741734    -0.34300
N43         N  0.83197371  0.62199028  0.09682146    -0.26500
C44         C  0.82722830  0.62554624  0.12346981    -0.01700
C45         C  0.81934744  0.63731946  0.12038689     0.06900
C46         C  0.81965993  0.64050407  0.09104628     0.05000
H47         H  0.82948328  0.62010308  0.14352004     0.10100
H48         H  0.81478667  0.64920250  0.08032602     0.08900
N49         N  0.70040330  0.76690193  0.23363388    -0.25400
N50         N  0.70096115  0.76377592  0.20543238    -0.33300
C51         C  0.71092144  0.75459267  0.20079383     0.02900
C52         C  0.71693552  0.75181814  0.22725715     0.08900
C53         C  0.71006194  0.75974000  0.24767077    -0.04200
H54         H  0.71333716  0.75002966  0.17971358     0.09600
H55         H  0.71170807  0.76004020  0.27097754     0.10800
Cu56       Cu  0.68759067  0.77121124  0.17412718     0.44200
Cu57       Cu  0.68587982  0.78018479  0.25163753     0.42000
Cu58       Cu  0.66009248  0.79247373  0.19927628     0.43900
N59         N  0.67192529  0.77839854  0.14674434    -0.32800
N60         N  0.66165904  0.78615504  0.15605153    -0.27100
C61         C  0.65236437  0.78819494  0.13345209    -0.03200
C62         C  0.65714330  0.78144854  0.10886858     0.09000
C63         C  0.66947580  0.77528614  0.11794493     0.02800
H64         H  0.64246767  0.79364279  0.13499405     0.10500
H65         H  0.67571603  0.76849225  0.10481291     0.09600
N66         N  0.66023293  0.79740571  0.24342572    -0.34300
N67         N  0.66951220  0.79304845  0.26273209    -0.26500
C68         C  0.66620522  0.79800952  0.28937516    -0.01700
C69         C  0.65434210  0.80578995  0.28639312     0.06900
C70         C  0.65084332  0.80519884  0.25711864     0.05000
H71         H  0.67187758  0.79596613  0.30935647     0.10100
H72         H  0.64200411  0.80993952  0.24649020     0.08900
N73         N  0.58604470  0.86425803  0.40230464    -0.25400
N74         N  0.58539068  0.86731434  0.43050896    -0.33300
C75         C  0.57538149  0.87645142  0.43510700     0.02900
C76         C  0.56943597  0.87926834  0.40861349     0.08900
C77         C  0.57640128  0.87141985  0.38822434    -0.04200
H78         H  0.57288354  0.88095236  0.45618212     0.09600
H79         H  0.57482201  0.87116378  0.36490766     0.10800
Cu80       Cu  0.59870581  0.85985396  0.46187400     0.44200
Cu81       Cu  0.60066195  0.85105392  0.38436926     0.42000
Cu82       Cu  0.62641630  0.83878808  0.43682527     0.43900
N83         N  0.61440618  0.85274208  0.48931435    -0.32800
N84         N  0.62475344  0.84506605  0.48004132    -0.27100
C85         C  0.63406469  0.84308038  0.50266722    -0.03200
C86         C  0.62921360  0.84977715  0.52723322     0.09000
C87         C  0.61681939  0.85585477  0.51811904     0.02800
H88         H  0.64402308  0.83770541  0.50115499     0.10500
H89         H  0.61051639  0.86259748  0.53122756     0.09600
N90         N  0.62635846  0.83389723  0.39267243    -0.34300
N91         N  0.61709055  0.83824739  0.37333554    -0.26500
C92         C  0.62044503  0.83331404  0.34670359    -0.01700
C93         C  0.63232843  0.82556030  0.34972227     0.06900
C94         C  0.63578873  0.82613637  0.37900865     0.05000
H95         H  0.61478560  0.83535266  0.32670513     0.10100
H96         H  0.64462372  0.82140166  0.38966574     0.08900
N97         N  0.91830059  0.52998339  0.06882198    -0.25400
N98         N  0.91766740  0.53307106  0.09702121    -0.33300
C99         C  0.90768623  0.54223711  0.10161008     0.02900
C100        C  0.90173334  0.54504581  0.07511971     0.08900
C101        C  0.90866833  0.53715929  0.05473649    -0.04200
H102        H  0.90521162  0.54676325  0.12268090     0.09600
H103        H  0.90706966  0.53688107  0.03142209     0.10800
Cu104      Cu  0.93096936  0.52562450  0.12841780     0.44200
Cu105      Cu  0.93285222  0.51667941  0.05092669     0.42000
Cu106      Cu  0.95829619  0.50411932  0.10359092     0.43900
N107        N  0.94666297  0.51855457  0.15593237    -0.32800
N108        N  0.95686959  0.51070422  0.14675367    -0.27100
C109        C  0.96622018  0.50879689  0.16940301    -0.03200
C110        C  0.96153879  0.51572850  0.19388259     0.09000
C111        C  0.94920471  0.52185942  0.18468906     0.02800
H112        H  0.97608308  0.50330475  0.16796169     0.10500
H113        H  0.94301974  0.52875472  0.19770865     0.09600
N114        N  0.95824507  0.49918221  0.05943648    -0.34300
N115        N  0.94913088  0.50366953  0.04001985    -0.26500
C116        C  0.95256412  0.49876764  0.01340949    -0.01700
C117        C  0.96433302  0.49088703  0.01652490     0.06900
C118        C  0.96764472  0.49136102  0.04584770     0.05000
H119        H  0.94706886  0.50094907  0.99335470     0.10100
H120        H  0.97640696  0.48656654  0.05657530     0.08900
N121        N  0.03317656  0.43278456  0.90078032    -0.25400
N122        N  0.03386667  0.42981398  0.87255342    -0.33300
C123        C  0.04391041  0.42072376  0.86786398     0.02900
C124        C  0.04984565  0.41784554  0.89431644     0.08900
C125        C  0.04283595  0.42560789  0.91478324    -0.04200
H126        H  0.04646734  0.41632604  0.84674545     0.09600
H127        H  0.04442471  0.42582449  0.93809363     0.10800
Cu128      Cu  0.02065518  0.43739721  0.84121481     0.44200
Cu129      Cu  0.01856632  0.44598111  0.91883291     0.42000
Cu130      Cu  0.99324684  0.45872163  0.86623429     0.43900
N131        N  0.00516029  0.44471986  0.81372417    -0.32800
N132        N  0.99492040  0.45251333  0.82298735    -0.27100
C133        C  0.98571656  0.45463570  0.80033969    -0.03200
C134        C  0.99053192  0.44790706  0.77577073     0.09000
C135        C  0.00278790  0.44166558  0.78490716     0.02800
H136        H  0.97584762  0.46011847  0.80183749     0.10500
H137        H  0.00901933  0.43485064  0.77180425     0.09600
N138        N  0.99310818  0.46340822  0.91042315    -0.34300
N139        N  0.00219278  0.45887424  0.92982392    -0.26500
C140        C  0.99866915  0.46365839  0.95646118    -0.01700
C141        C  0.98686854  0.47150638  0.95337538     0.06900
C142        C  0.98363620  0.47113964  0.92404471     0.05000
H143        H  0.00413753  0.46143417  0.97650965     0.10100
H144        H  0.97489973  0.47596936  0.91332816     0.08900
N145        N  0.09433834  0.37271516  0.90170662    -0.25400
N146        N  0.09133329  0.37341381  0.92992047    -0.33300
C147        C  0.08210045  0.38332643  0.93452225     0.02900
C148        C  0.07916336  0.38916376  0.90802541     0.08900
C149        C  0.08704173  0.38223519  0.88762313    -0.04200
H150        H  0.07762138  0.38583607  0.95560838     0.09600
H151        H  0.08723219  0.38375953  0.86430107     0.10800
Cu152      Cu  0.09900509  0.36032478  0.96134219     0.44200
Cu153      Cu  0.10768719  0.35822878  0.88377985     0.42000
Cu154      Cu  0.12058025  0.33309254  0.93645226     0.43900
N155        N  0.10641861  0.34492778  0.98889191    -0.32800
N156        N  0.11430083  0.33475811  0.97968307    -0.27100
C157        C  0.11643744  0.32558647  0.00236422    -0.03200
C158        C  0.10962468  0.33034707  0.02689727     0.09000
C159        C  0.10332011  0.34253931  0.01770347     0.02800
H160        H  0.12197364  0.31576203  0.00090916     0.10500
H161        H  0.09641977  0.34870356  0.03075943     0.09600
N162        N  0.12531454  0.33296408  0.89226293    -0.34300
N163        N  0.12072179  0.34199033  0.87284451    -0.26500
C164        C  0.12554671  0.33850386  0.84621476    -0.01700
C165        C  0.13348554  0.32678829  0.84931740     0.06900
C166        C  0.13312803  0.32356433  0.87865413     0.05000
H167        H  0.12328294  0.34393507  0.82615949     0.10100
H168        H  0.13801361  0.31487821  0.88938011     0.08900
N169        N  0.19229932  0.25845796  0.73431033    -0.25400
N170        N  0.19535686  0.25773768  0.70611934    -0.33300
C171        C  0.20461127  0.24783553  0.70163283     0.02900
C172        C  0.20750821  0.24202774  0.72818272     0.08900
C173        C  0.19958250  0.24896212  0.74849558    -0.04200
H174        H  0.20911435  0.24529573  0.68058648     0.09600
H175        H  0.19933444  0.24744233  0.77182429     0.10800
Cu176      Cu  0.18768472  0.27074804  0.67457381     0.44200
Cu177      Cu  0.17886784  0.27291235  0.75205833     0.42000
Cu178      Cu  0.16595384  0.29790692  0.69916520     0.43900
N179        N  0.18024031  0.28605228  0.64688925    -0.32800
N180        N  0.17230439  0.29619620  0.65598252    -0.27100
C181        C  0.17015968  0.30530518  0.63322355    -0.03200
C182        C  0.17702302  0.30052871  0.60876355     0.09000
C183        C  0.18336490  0.28839351  0.61807878     0.02800
H184        H  0.16457847  0.31509472  0.63457601     0.10500
H185        H  0.19030405  0.28223368  0.60510458     0.09600
N186        N  0.16116749  0.29809137  0.74333059    -0.34300
N187        N  0.16576795  0.28911499  0.76282525    -0.26500
C188        C  0.16091339  0.29263190  0.78941218    -0.01700
C189        C  0.15294715  0.30431475  0.78620459     0.06900
C190        C  0.15331932  0.30748907  0.75684843     0.05000
H191        H  0.16318117  0.28724811  0.80951194     0.10100
H192        H  0.14842536  0.31614415  0.74604892     0.08900
N193        N  0.36787597  0.10076034  0.56726256    -0.25400
N194        N  0.36852518  0.09768382  0.53906301    -0.33300
C195        C  0.37854974  0.08856195  0.53447518     0.02900
C196        C  0.38451564  0.08577208  0.56096742     0.08900
C197        C  0.37754239  0.09362244  0.58134929    -0.04200
H198        H  0.38104974  0.08405789  0.51340412     0.09600
H199        H  0.37914250  0.09390559  0.60466393     0.10800
Cu200      Cu  0.35519713  0.10509782  0.50766762     0.44200
Cu201      Cu  0.35326548  0.11400620  0.58516078     0.42000
Cu202      Cu  0.32775716  0.12649122  0.53255475     0.43900
N203        N  0.33945808  0.11213069  0.48018981    -0.32800
N204        N  0.32921537  0.11993686  0.48939263    -0.27100
C205        C  0.31984383  0.12182717  0.46675927    -0.03200
C206        C  0.32454662  0.11492969  0.44226570     0.09000
C207        C  0.33691733  0.10883721  0.45143085     0.02800
H208        H  0.30995242  0.12728443  0.46822101     0.10500
H209        H  0.34312918  0.10197630  0.43839114     0.09600
N210        N  0.32779573  0.13142030  0.57670471    -0.34300
N211        N  0.33693938  0.12696250  0.59611038    -0.26500
C212        C  0.33352252  0.13187969  0.62272147    -0.01700
C213        C  0.32173292  0.13973917  0.61961597     0.06900
C214        C  0.31839249  0.13923611  0.59029828     0.05000
H215        H  0.33905748  0.12973969  0.64276803     0.10100
H216        H  0.30962429  0.14402514  0.57957496     0.08900
N217        N  0.25318876  0.19811424  0.73556031    -0.25400
N218        N  0.25249945  0.20106603  0.76379437    -0.33300
C219        C  0.24252424  0.21022608  0.76850293     0.02900
C220        C  0.23663390  0.21316904  0.74205518     0.08900
C221        C  0.24359727  0.20537110  0.72157450    -0.04200
H222        H  0.23998842  0.21463127  0.78962982     0.09600
H223        H  0.24202998  0.20519112  0.69826292     0.10800
Cu224      Cu  0.26564542  0.19338380  0.79510973     0.44200
Cu225      Cu  0.26773290  0.18486340  0.71745025     0.42000
Cu226      Cu  0.29299121  0.17201126  0.76995673     0.43900
N227        N  0.28112692  0.18600250  0.82253695    -0.32800
N228        N  0.29134213  0.17819308  0.81322428    -0.27100
C229        C  0.30056456  0.17605862  0.83583547    -0.03200
C230        C  0.29578842  0.18279634  0.86043356     0.09000
C231        C  0.28353529  0.18905520  0.85135078     0.02800
H232        H  0.31042942  0.17057255  0.83428988     0.10500
H233        H  0.27733985  0.19589167  0.86448464     0.09600
N234        N  0.29314225  0.16737493  0.72575502    -0.34300
N235        N  0.28407529  0.17194686  0.70637845    -0.26500
C236        C  0.28758150  0.16716642  0.67972538    -0.01700
C237        C  0.29935273  0.15928083  0.68277769     0.06900
C238        C  0.30258574  0.15962348  0.71210431     0.05000
H239        H  0.28211091  0.16940598  0.65969121     0.10100
H240        H  0.31129175  0.15474966  0.72280081     0.08900
N241        N  0.52534274  0.92477813  0.40072580    -0.25400
N242        N  0.52820303  0.92387783  0.37250827    -0.33300
C243        C  0.53735083  0.91387254  0.36799212     0.02900
C244        C  0.54038233  0.90818296  0.39455050     0.08900
C245        C  0.53264843  0.91529686  0.41489541    -0.04200
H246        H  0.54170047  0.91119177  0.34691830     0.09600
H247        H  0.53255317  0.91391401  0.43823571     0.10800
Cu248      Cu  0.52045473  0.93682771  0.34096133     0.44200
Cu249      Cu  0.51215600  0.93946362  0.41854322     0.42000
Cu250      Cu  0.49928305  0.96448162  0.36566855     0.43900
N251        N  0.51311868  0.95223921  0.31330881    -0.32800
N252        N  0.50539927  0.96256967  0.32246216    -0.27100
C253        C  0.50331789  0.97173960  0.29973281    -0.03200
C254        C  0.50999235  0.96680864  0.27522335     0.09000
C255        C  0.51616396  0.95452019  0.28447787     0.02800
H256        H  0.49792800  0.98168768  0.30114114     0.10500
H257        H  0.52295815  0.94823304  0.27145314     0.09600
N258        N  0.49466857  0.96483739  0.40983882    -0.34300
N259        N  0.49925333  0.95585728  0.42934844    -0.26500
C260        C  0.49448951  0.95947713  0.45593688    -0.01700
C261        C  0.48659993  0.97122963  0.45270463     0.06900
C262        C  0.48692304  0.97433630  0.42333776     0.05000
H263        H  0.49674417  0.95409636  0.47604987     0.10100
H264        H  0.48204374  0.98299503  0.41251212     0.08900
N265        N  0.42860088  0.04023600  0.56839335    -0.25400
N266        N  0.42571374  0.04102462  0.59662652    -0.33300
C267        C  0.41661236  0.05106272  0.60128304     0.02900
C268        C  0.41363850  0.05689132  0.57479973     0.08900
C269        C  0.42135925  0.04982367  0.55435375    -0.04200
H270        H  0.41223148  0.05364983  0.62239561     0.09600
H271        H  0.42146865  0.05129159  0.53102879     0.10800
Cu272      Cu  0.43331450  0.02782608  0.62797600     0.44200
Cu273      Cu  0.44170224  0.02551722  0.55038511     0.42000
Cu274      Cu  0.45444279  0.00017962  0.60291853     0.43900
N275        N  0.44047833  0.01217285  0.65541366    -0.32800
N276        N  0.44818148  0.00184991  0.64614745    -0.27100
C277        C  0.45016444  0.99253869  0.66877893    -0.03200
C278        C  0.44344002  0.99736917  0.69333834     0.09000
C279        C  0.43734633  0.00974629  0.68421419     0.02800
H280        H  0.45554453  0.98258544  0.66727223     0.10500
H281        H  0.43056981  0.01602027  0.69731029     0.09600
N282        N  0.45912084  0.00004552  0.55872334    -0.34300
N283        N  0.45456868  0.00912451  0.53933888    -0.26500
C284        C  0.45935103  0.00561443  0.51268940    -0.01700
C285        C  0.46722230  0.99383279  0.51575220     0.06900
C286        C  0.46686603  0.99059378  0.54508086     0.05000
H287        H  0.45712252  0.01109010  0.49265110     0.10100
H288        H  0.47171630  0.98186999  0.55578206     0.08900
N289        N  0.43403866  0.37715855  0.06904995    -0.25400
N290        N  0.42951903  0.37304456  0.09684216    -0.33300
C291        C  0.42094607  0.35349926  0.10065067     0.02900
C292        C  0.42009360  0.34498440  0.07403545     0.08900
C293        C  0.42843573  0.36028716  0.05441939    -0.04200
H294        H  0.41530187  0.34602477  0.12115088     0.09600
H295        H  0.42986280  0.35921225  0.03118140     0.10800
Cu296      Cu  0.43405550  0.39382541  0.12826169     0.44200
Cu297      Cu  0.44651633  0.40535801  0.05213613     0.42000
Cu298      Cu  0.45459020  0.44371336  0.10414487     0.43900
N299        N  0.43905879  0.41679153  0.15568169    -0.32800
N300        N  0.44660877  0.43514833  0.14689480    -0.27100
C301        C  0.44737556  0.44633962  0.16960222    -0.03200
C302        C  0.43998747  0.43437812  0.19366408     0.09000
C303        C  0.43481351  0.41577719  0.18418940     0.02800
H304        H  0.45254326  0.46188517  0.16849804     0.10500
H305        H  0.42810368  0.40241629  0.19688179     0.09600
N306        N  0.46047694  0.44847162  0.06006851    -0.34300
N307        N  0.45758432  0.43459466  0.04107435    -0.26500
C308        C  0.46231216  0.44250525  0.01435379    -0.01700
C309        C  0.46842666  0.46220528  0.01684546     0.06900
C310        C  0.46710615  0.46554054  0.04598129     0.05000
H311        H  0.46108188  0.43443624  0.99460768     0.10100
H312        H  0.47041274  0.47925617  0.05618313     0.08900
N313        N  0.51901817  0.58730485  0.89972114    -0.25400
N314        N  0.52339960  0.59140835  0.87189597    -0.33300
C315        C  0.53192232  0.61094841  0.86808676     0.02900
C316        C  0.53288725  0.61947344  0.89473610     0.08900
C317        C  0.52466209  0.60417939  0.91437251    -0.04200
H318        H  0.53745828  0.61841376  0.84755700     0.09600
H319        H  0.52334007  0.60526359  0.93763235     0.10800
Cu320      Cu  0.51876302  0.57062432  0.84041871     0.44200
Cu321      Cu  0.50664620  0.55910608  0.91661123     0.42000
Cu322      Cu  0.49830038  0.52073663  0.86436229     0.43900
N323        N  0.51378379  0.54771109  0.81289462    -0.32800
N324        N  0.50625784  0.52934641  0.82162320    -0.27100
C325        C  0.50554821  0.51820168  0.79888751    -0.03200
C326        C  0.51294868  0.53020199  0.77486573     0.09000
C327        C  0.51807028  0.54877798  0.78439556     0.02800
H328        H  0.50043205  0.50266718  0.79995310     0.10500
H329        H  0.52479372  0.56216174  0.77175537     0.09600
N330        N  0.49253638  0.51595944  0.90846091    -0.34300
N331        N  0.49554420  0.52983604  0.92753467    -0.26500
C332        C  0.49087502  0.52189616  0.95423855    -0.01700
C333        C  0.48467838  0.50217970  0.95165431     0.06900
C334        C  0.48588854  0.49886311  0.92248034     0.05000
H335        H  0.49219108  0.52995379  0.97403397     0.10100
H336        H  0.48249340  0.48514056  0.91220380     0.08900
N337        N  0.32558049  0.19374778  0.98765951    -0.25400
N338        N  0.33697331  0.21205330  0.97835861    -0.33300
C339        C  0.33365130  0.21268536  0.94999754     0.02900
C340        C  0.31955811  0.19390141  0.94111780     0.08900
C341        C  0.31466775  0.18220310  0.96539107    -0.04200
H342        H  0.34063351  0.22593430  0.93703590     0.09600
H343        H  0.30370047  0.16661982  0.96697150     0.10800
Cu344      Cu  0.35566267  0.23562743  0.00477358     0.44200
Cu345      Cu  0.32478809  0.18577883  0.03055491     0.42000
Cu346      Cu  0.35580665  0.22559518  0.08099412     0.43900
N347        N  0.37212538  0.25723011  0.03532222    -0.32800
N348        N  0.37219901  0.25365424  0.06326375    -0.27100
C349        C  0.38349853  0.27089351  0.07738006    -0.03200
C350        C  0.39082541  0.28587763  0.05726926     0.09000
C351        C  0.38334117  0.27678778  0.03088579     0.02800
H352        H  0.38568803  0.27242015  0.10061885     0.10500
H353        H  0.38535088  0.28386085  0.01015318     0.09600
N354        N  0.33732792  0.19631053  0.09309812    -0.34300
N355        N  0.32608255  0.18189042  0.07471714    -0.26500
C356        C  0.31578494  0.16487228  0.08940737    -0.01700
C357        C  0.32081385  0.16881694  0.11828981     0.06900
C358        C  0.33446379  0.18881597  0.11999469     0.05000
H359        H  0.30535384  0.15072675  0.07975603     0.10100
H360        H  0.34170455  0.19732217  0.13930844     0.08900
N361        N  0.29463416  0.10398610  0.31508626    -0.25400
N362        N  0.28323349  0.08565400  0.32427816    -0.33300
C363        C  0.28660630  0.08492317  0.35259337     0.02900
C364        C  0.30073833  0.10367182  0.36155705     0.08900
C365        C  0.30559809  0.11545012  0.33738046    -0.04200
H366        H  0.27959824  0.07163978  0.36547862     0.09600
H367        H  0.31655305  0.13104180  0.33589200     0.10800
Cu368      Cu  0.26438976  0.06219649  0.29778681     0.44200
Cu369      Cu  0.29531311  0.11210611  0.27230329     0.42000
Cu370      Cu  0.26412286  0.07238801  0.22171797     0.43900
N371        N  0.24778855  0.04065393  0.26722491    -0.32800
N372        N  0.24768101  0.04428149  0.23931343    -0.27100
C373        C  0.23635522  0.02706509  0.22514725    -0.03200
C374        C  0.22904697  0.01203969  0.24519559     0.09000
C375        C  0.23656787  0.02108800  0.27159298     0.02800
H376        H  0.23415439  0.02557870  0.20190967     0.10500
H377        H  0.23460588  0.01397701  0.29227872     0.09600
N378        N  0.28261286  0.10171483  0.20978094    -0.34300
N379        N  0.29390010  0.11608947  0.22820089    -0.26500
C380        C  0.30417910  0.13314254  0.21358688    -0.01700
C381        C  0.29909497  0.12926955  0.18471553     0.06900
C382        C  0.28543437  0.10927668  0.18293745     0.05000
H383        H  0.31464610  0.14726010  0.22327827     0.10100
H384        H  0.27816260  0.10081757  0.16360448     0.08900
N385        N  0.09981434  0.71036528  0.40261363    -0.25400
N386        N  0.09567573  0.70630344  0.43049865    -0.33300
C387        C  0.08708346  0.68675234  0.43429762     0.02900
C388        C  0.08581829  0.67817939  0.40757886     0.08900
C389        C  0.09394053  0.69345675  0.38791570    -0.04200
H390        H  0.08174939  0.67931946  0.45488963     0.09600
H391        H  0.09509179  0.69234853  0.36462485     0.10800
Cu392      Cu  0.10082124  0.72719146  0.46210944     0.44200
Cu393      Cu  0.11231356  0.73858148  0.38573843     0.42000
Cu394      Cu  0.12155039  0.77714101  0.43811308     0.43900
N395        N  0.10620164  0.75023331  0.48967954    -0.32800
N396        N  0.11380829  0.76860515  0.48092272    -0.27100
C397        C  0.11468275  0.77981689  0.50367206    -0.03200
C398        C  0.10730900  0.76785839  0.52773940     0.09000
C399        C  0.10202910  0.74923377  0.51821578     0.02800
H400        H  0.11984399  0.79536091  0.50257152     0.10500
H401        H  0.09522146  0.73585365  0.53087177     0.09600
N402        N  0.12707195  0.78186461  0.39396231    -0.34300
N403        N  0.12373741  0.76790956  0.37483475    -0.26500
C404        C  0.12834155  0.77582950  0.34811704    -0.01700
C405        C  0.13483721  0.79561637  0.35074842     0.06900
C406        C  0.13386931  0.79899469  0.37996496     0.05000
H407        H  0.12677936  0.76771463  0.32828489     0.10100
H408        H  0.13753059  0.81278505  0.39028861     0.08900
N409        N  0.18581093  0.92073304  0.23343334    -0.25400
N410        N  0.19003731  0.92477939  0.20556215    -0.33300
C411        C  0.19862352  0.94432651  0.20172053     0.02900
C412        C  0.19979277  0.95291240  0.22839630     0.08900
C413        C  0.19162066  0.93764639  0.24807835    -0.04200
H414        H  0.20404335  0.95175183  0.18113953     0.09600
H415        H  0.19041747  0.93876958  0.27135562     0.10800
Cu416      Cu  0.18508699  0.90388635  0.17405749     0.44200
Cu417      Cu  0.17335765  0.89254514  0.25038955     0.42000
Cu418      Cu  0.16462325  0.85402411  0.19821745     0.43900
N419        N  0.17996960  0.88087707  0.14659764    -0.32800
N420        N  0.17246166  0.86253300  0.15541663    -0.27100
C421        C  0.17172359  0.85133544  0.13273418    -0.03200
C422        C  0.17908504  0.86327483  0.10864431     0.09000
C423        C  0.18421353  0.88187286  0.11808696     0.02800
H424        H  0.16664131  0.83581211  0.13389013     0.10500
H425        H  0.19094696  0.89523164  0.10538773     0.09600
N426        N  0.15896851  0.84933210  0.24235004    -0.34300
N427        N  0.16211355  0.86326695  0.26139921    -0.26500
C428        C  0.15747506  0.85537263  0.28813277    -0.01700
C429        C  0.15115596  0.83562402  0.28559307     0.06900
C430        C  0.15226185  0.83224178  0.25641520     0.05000
H431        H  0.15889643  0.86348152  0.30791573     0.10100
H432        H  0.14875491  0.81847697  0.24616541     0.08900
N433        N  0.65905898  0.86059190  0.65441635    -0.25400
N434        N  0.67041977  0.87893500  0.64524811    -0.33300
C435        C  0.66706085  0.87966189  0.61692702     0.02900
C436        C  0.65297693  0.86090043  0.60794137     0.08900
C437        C  0.64813278  0.84911749  0.63210636    -0.04200
H438        H  0.67403127  0.89295251  0.60405859     0.09600
H439        H  0.63720209  0.83351825  0.63358269     0.10800
Cu440      Cu  0.68917342  0.90240773  0.67178674     0.44200
Cu441      Cu  0.65835412  0.85246702  0.69718839     0.42000
Cu442      Cu  0.68966004  0.89210517  0.74777510     0.43900
N443        N  0.70581256  0.92390880  0.70238139    -0.32800
N444        N  0.70602453  0.92023950  0.73025028    -0.27100
C445        C  0.71741613  0.93743437  0.74443563    -0.03200
C446        C  0.72466003  0.95248792  0.72444124     0.09000
C447        C  0.71702901  0.94347968  0.69806101     0.02800
H448        H  0.71972424  0.93888532  0.76765048     0.10500
H449        H  0.71894264  0.95061985  0.67741510     0.09600
N450        N  0.67106867  0.86279289  0.75970022    -0.34300
N451        N  0.65972248  0.84845102  0.74127526    -0.26500
C452        C  0.64930380  0.83141651  0.75589191    -0.01700
C453        C  0.65435893  0.83526683  0.78477191     0.06900
C454        C  0.66814834  0.85522655  0.78655433     0.05000
H455        H  0.63873818  0.81733464  0.74620302     0.10100
H456        H  0.67540787  0.86366807  0.80590466     0.08900
N457        N  0.62738127  0.77056929  0.98164240    -0.25400
N458        N  0.61606971  0.75222354  0.99082557    -0.33300
C459        C  0.61940153  0.75153151  0.01916662     0.02900
C460        C  0.63341474  0.77031867  0.02815192     0.08900
C461        C  0.63824867  0.78208089  0.00396449    -0.04200
H462        H  0.61246399  0.73824765  0.03204976     0.09600
H463        H  0.64913528  0.79769172  0.00248241     0.10800
Cu464      Cu  0.59741553  0.72870370  0.96429259     0.44200
Cu465      Cu  0.62809574  0.77864975  0.93884115     0.42000
Cu466      Cu  0.59685584  0.73895219  0.88830459     0.43900
N467        N  0.58084906  0.70716798  0.93370867    -0.32800
N468        N  0.58060649  0.71082305  0.90584205    -0.27100
C469        C  0.56928021  0.69361648  0.89165627    -0.03200
C470        C  0.56211149  0.67857001  0.91164797     0.09000
C471        C  0.56971700  0.68759221  0.93802837     0.02800
H472        H  0.56696898  0.69215626  0.86844235     0.10500
H473        H  0.56784411  0.68046250  0.95867184     0.09600
N474        N  0.61539236  0.76825590  0.87633371    -0.34300
N475        N  0.62672192  0.78262068  0.89473790    -0.26500
C476        C  0.63712051  0.79964326  0.88008843    -0.01700
C477        C  0.63206924  0.79575998  0.85121004     0.06900
C478        C  0.61830272  0.77579352  0.84946167     0.05000
H479        H  0.64767138  0.81373969  0.88975363     0.10100
H480        H  0.61105545  0.76732757  0.83012274     0.08900
N481        N  0.96085640  0.43709315  0.64848455    -0.25400
N482        N  0.94952950  0.41875729  0.65770174    -0.33300
C483        C  0.95286176  0.41808106  0.68604596     0.02900
C484        C  0.96689287  0.43686729  0.69500313     0.08900
C485        C  0.97173554  0.44861396  0.67079385    -0.04200
H486        H  0.94591933  0.40480530  0.69894708     0.09600
H487        H  0.98264067  0.46421852  0.66928676     0.10800
Cu488      Cu  0.93088670  0.39521227  0.63121445     0.44200
Cu489      Cu  0.96159537  0.44514901  0.60564738     0.42000
Cu490      Cu  0.93062287  0.40541868  0.55509132     0.43900
N491        N  0.91442750  0.37367403  0.60058984    -0.32800
N492        N  0.91430827  0.37731313  0.57268513    -0.27100
C493        C  0.90301292  0.36010313  0.55849774    -0.03200
C494        C  0.89573631  0.34507291  0.57852505     0.09000
C495        C  0.90324553  0.35410436  0.60493154     0.02800
H496        H  0.90078793  0.35862949  0.53526487     0.10500
H497        H  0.90127106  0.34698522  0.62561397     0.09600
N498        N  0.94903195  0.43473594  0.54309741    -0.34300
N499        N  0.96026505  0.44912981  0.56152128    -0.26500
C500        C  0.97053087  0.46617886  0.54689409    -0.01700
C501        C  0.96549279  0.46228092  0.51800792     0.06900
C502        C  0.95187138  0.44227753  0.51623723     0.05000
H503        H  0.98095392  0.48031185  0.55658731     0.10100
H504        H  0.94464103  0.43379822  0.49689965     0.08900
N505        N  0.99141273  0.52690853  0.32113085    -0.25400
N506        N  0.00267740  0.54525127  0.31191071    -0.33300
C507        C  0.99929007  0.54591465  0.28358259     0.02900
C508        C  0.98529112  0.52711100  0.27463579     0.08900
C509        C  0.98052352  0.51536943  0.29883997    -0.04200
H510        H  0.00619996  0.55918595  0.27067276     0.09600
H511        H  0.96968048  0.49974814  0.30034673     0.10800
Cu512      Cu  0.02138316  0.56879803  0.33837053     0.44200
Cu513      Cu  0.99082114  0.51887549  0.36394572     0.42000
Cu514      Cu  0.02188634  0.55871065  0.41444984     0.43900
N515        N  0.03795969  0.59039766  0.36887484    -0.32800
N516        N  0.03816219  0.58680791  0.39677967    -0.27100
C517        C  0.04946701  0.60405000  0.41089507    -0.03200
C518        C  0.05666133  0.61905172  0.39082085     0.09000
C519        C  0.04909670  0.60996373  0.36446133     0.02800
H520        H  0.05173557  0.60556650  0.43411757     0.10500
H521        H  0.05098076  0.61704444  0.34377028     0.09600
N522        N  0.00351919  0.52937931  0.42645916    -0.34300
N523        N  0.99227559  0.51496348  0.40806754    -0.26500
C524        C  0.98205825  0.49792155  0.42272308    -0.01700
C525        C  0.98713588  0.50184344  0.45159207     0.06900
C526        C  0.00073044  0.52185526  0.45332546     0.05000
H527        H  0.97163240  0.48377753  0.41306192     0.10100
H528        H  0.00797408  0.53035288  0.47264388     0.08900
N529        N  0.85254607  0.25381589  0.56654118    -0.25400
N530        N  0.85711774  0.25794845  0.53876523    -0.33300
C531        C  0.86569919  0.27749610  0.53497526     0.02900
C532        C  0.86650095  0.28599263  0.56158602     0.08900
C533        C  0.85812172  0.27067772  0.58118009    -0.04200
H534        H  0.87137917  0.28498335  0.51449213     0.09600
H535        H  0.85665089  0.27173802  0.60441071     0.10800
Cu536      Cu  0.85261872  0.23718708  0.50734243     0.44200
Cu537      Cu  0.84003673  0.22560524  0.58342716     0.42000
Cu538      Cu  0.83202348  0.18728142  0.53139732     0.43900
N539        N  0.84759122  0.21422858  0.47989733    -0.32800
N540        N  0.84001962  0.19586421  0.48866181    -0.27100
C541        C  0.83923975  0.18467804  0.46593997    -0.03200
C542        C  0.84664100  0.19665164  0.44189287     0.09000
C543        C  0.85183725  0.21525382  0.45138981     0.02800
H544        H  0.83405731  0.16912845  0.46702558     0.10500
H545        H  0.85856614  0.22862300  0.43871468     0.09600
N546        N  0.82608678  0.18249705  0.57545427    -0.34300
N547        N  0.82895426  0.19636016  0.59445827    -0.26500
C548        C  0.82418973  0.18842849  0.62116401    -0.01700
C549        C  0.81807678  0.16872957  0.61864978     0.06900
C550        C  0.81943781  0.16541712  0.58951825     0.05000
H551        H  0.82539483  0.19648249  0.64091621     0.10100
H552        H  0.81614541  0.15170956  0.57930399     0.08900
N553        N  0.78044439  0.10180284  0.81397390    -0.25400
N554        N  0.77305909  0.08347581  0.82277870    -0.33300
C555        C  0.76880658  0.08243697  0.85128788     0.02900
C556        C  0.77380353  0.10099179  0.86074372     0.08900
C557        C  0.78109537  0.11295033  0.83666720    -0.04200
H558        H  0.76219068  0.06908345  0.86398740     0.09600
H559        H  0.78610063  0.12845620  0.83553792     0.10800
Cu560      Cu  0.76820960  0.06056428  0.79533628     0.44200
Cu561      Cu  0.78830340  0.11034762  0.77119723     0.42000
Cu562      Cu  0.78014297  0.07193561  0.71909558     0.43900
N563        N  0.76359326  0.03972787  0.76395084    -0.32800
N564        N  0.76790338  0.04377606  0.73609868    -0.27100
C565        C  0.76224641  0.02687432  0.72151254    -0.03200
C566        C  0.75408780  0.01161895  0.74121910     0.09000
C567        C  0.75510582  0.02019843  0.76784235     0.02800
H568        H  0.76349118  0.02574063  0.69824610     0.10500
H569        H  0.74960390  0.01277209  0.78840577     0.09600
N570        N  0.79108361  0.10116406  0.70806577    -0.34300
N571        N  0.79401833  0.11504550  0.72708340    -0.26500
C572        C  0.80058535  0.13210549  0.71300442    -0.01700
C573        C  0.80181907  0.12876293  0.68384950     0.06900
C574        C  0.79572121  0.10906761  0.68133659     0.05000
H575        H  0.80392336  0.14582392  0.72323158     0.10100
H576        H  0.79446291  0.10100160  0.66157459     0.08900
N577        N  0.91527005  0.19056539  0.23546618    -0.25400
N578        N  0.91940933  0.19487348  0.26329431    -0.33300
C579        C  0.93896343  0.20343294  0.26701313     0.02900
C580        C  0.94746436  0.20450086  0.24029998     0.08900
C581        C  0.93213810  0.19629689  0.22071961    -0.04200
H582        H  0.94645654  0.20894774  0.28752337     0.09600
H583        H  0.93319771  0.19506837  0.19743516     0.10800
Cu584      Cu  0.89865776  0.19016109  0.29487908     0.44200
Cu585      Cu  0.88702949  0.17821996  0.21872586     0.42000
Cu586      Cu  0.84872893  0.16988272  0.27114514     0.43900
N587        N  0.87580195  0.18523348  0.32250071    -0.32800
N588        N  0.85743120  0.17778927  0.31385582    -0.27100
C589        C  0.84634959  0.17712937  0.33665417    -0.03200
C590        C  0.85839753  0.18447398  0.36062525     0.09000
C591        C  0.87693511  0.18951436  0.35100332     0.02800
H592        H  0.83082865  0.17209212  0.33566311     0.10500
H593        H  0.89034264  0.19619112  0.36358076     0.09600
N594        N  0.84389098  0.16415374  0.22705368    -0.34300
N595        N  0.85774060  0.16715734  0.20791840    -0.26500
C596        C  0.84976539  0.16252234  0.18123955    -0.01700
C597        C  0.83005440  0.15635086  0.18390458     0.06900
C598        C  0.82677883  0.15754279  0.21310051     0.05000
H599        H  0.85779751  0.16385109  0.16140514     0.10100
H600        H  0.81307436  0.15416633  0.22343683     0.08900
N601        N  0.70484548  0.10641527  0.06725562    -0.25400
N602        N  0.70074399  0.10229956  0.03937974    -0.33300
C603        C  0.68119399  0.09375630  0.03564267     0.02900
C604        C  0.67266044  0.09249919  0.06239203     0.08900
C605        C  0.68795880  0.10057325  0.08201257    -0.04200
H606        H  0.67372618  0.08837922  0.01508782     0.09600
H607        H  0.68686913  0.10164061  0.10532291     0.10800
Cu608      Cu  0.72152252  0.10721778  0.00772285     0.44200
Cu609      Cu  0.73304735  0.11865308  0.08406608     0.42000
Cu610      Cu  0.77135992  0.12718793  0.03162074     0.43900
N611        N  0.74441086  0.11223205  0.98010066    -0.32800
N612        N  0.76274737  0.11955328  0.98881677    -0.27100
C613        C  0.77385421  0.12025783  0.96602423    -0.03200
C614        C  0.76186214  0.11307207  0.94197846     0.09000
C615        C  0.74332696  0.10807770  0.95155462     0.02800
H616        H  0.78934875  0.12519371  0.96707283     0.10500
H617        H  0.72994714  0.10148930  0.93892243     0.09600
N618        N  0.77617090  0.13270948  0.07576019    -0.34300
N619        N  0.76230906  0.12964045  0.09491229    -0.26500
C620        C  0.77026106  0.13417438  0.12160802    -0.01700
C621        C  0.78997164  0.14034613  0.11893710     0.06900
C622        C  0.79327062  0.13926207  0.08971955     0.05000
H623        H  0.76221720  0.13279118  0.14145187     0.10100
H624        H  0.80698673  0.14269033  0.07936786     0.08900
N625        N  0.18801798  0.33019000  0.48140812    -0.25400
N626        N  0.20633701  0.34154580  0.49067189    -0.33300
C627        C  0.20698933  0.33816613  0.51900489     0.02900
C628        C  0.18820375  0.32407404  0.52790365     0.08900
C629        C  0.17648318  0.31924545  0.50367215    -0.04200
H630        H  0.22024142  0.34515612  0.53195581     0.09600
H631        H  0.16087949  0.30833606  0.50213285     0.10800
Cu632      Cu  0.22986220  0.36041249  0.46428884     0.44200
Cu633      Cu  0.18000886  0.32959531  0.43859603     0.42000
Cu634      Cu  0.21973468  0.36134536  0.38834826     0.43900
N635        N  0.25141296  0.37733572  0.43390728    -0.32800
N636        N  0.24780737  0.37772737  0.40605934    -0.27100
C637        C  0.26502784  0.38929691  0.39201618    -0.03200
C638        C  0.28002924  0.39646679  0.41208346     0.09000
C639        C  0.27096620  0.38860916  0.43835665     0.02800
H640        H  0.26653598  0.39177069  0.36883830     0.10500
H641        H  0.27806057  0.39040915  0.45900786     0.09600
N642        N  0.19048214  0.34266075  0.37621683    -0.34300
N643        N  0.17611194  0.33115007  0.39450936    -0.26500
C644        C  0.15912869  0.32074123  0.37977384    -0.01700
C645        C  0.16304246  0.32597398  0.35095641     0.06900
C646        C  0.18298623  0.33985885  0.34933457     0.05000
H647        H  0.14503355  0.31008024  0.38934488     0.10100
H648        H  0.19146170  0.34728083  0.33007722     0.08900
N649        N  0.09863996  0.30023856  0.15400304    -0.25400
N650        N  0.08031083  0.28894988  0.14474251    -0.33300
C651        C  0.07965433  0.29244028  0.11645654     0.02900
C652        C  0.09844603  0.30653627  0.10758504     0.08900
C653        C  0.11017570  0.31125006  0.13178463    -0.04200
H654        H  0.06639358  0.28553170  0.10352662     0.09600
H655        H  0.12578543  0.32213285  0.13333991     0.10800
Cu656      Cu  0.05676736  0.27006288  0.17109204     0.44200
Cu657      Cu  0.10666428  0.30068221  0.19676769     0.42000
Cu658      Cu  0.06690706  0.26907670  0.24702435     0.43900
N659        N  0.03520526  0.25320177  0.20150491    -0.32800
N660        N  0.03882102  0.25280494  0.22934741    -0.27100
C661        C  0.02160300  0.24128551  0.24342065    -0.03200
C662        C  0.00658962  0.23415213  0.22338229     0.09000
C663        C  0.01564340  0.24197965  0.19709065     0.02800
H664        H  0.02010813  0.23881180  0.26659846     0.10500
H665        H  0.00853999  0.24018844  0.17644999     0.09600
N666        N  0.09619032  0.28757640  0.25912679    -0.34300
N667        N  0.11057988  0.29903092  0.24082405    -0.26500
C668        C  0.12758386  0.30933740  0.25553847    -0.01700
C669        C  0.12366238  0.30409460  0.28435233     0.06900
C670        C  0.10369233  0.29031238  0.28599449     0.05000
H671        H  0.14169449  0.31995316  0.24596223     0.10100
H672        H  0.09520083  0.28292991  0.30525985     0.08900
N673        N  0.85420108  0.66357403  0.81554836    -0.25400
N674        N  0.87250088  0.67492974  0.82489246    -0.33300
C675        C  0.87309912  0.67152087  0.85322982     0.02900
C676        C  0.85430007  0.65741054  0.86205213     0.08900
C677        C  0.84262777  0.65260101  0.83776622    -0.04200
H678        H  0.88633183  0.67847661  0.86622331     0.09600
H679        H  0.82703549  0.64166679  0.83615125     0.10800
Cu680      Cu  0.89611223  0.69372237  0.79857427     0.44200
Cu681      Cu  0.84626794  0.66295433  0.77267152     0.42000
Cu682      Cu  0.88621262  0.69392805  0.72232503     0.43900
N683        N  0.91778469  0.71020907  0.76809202    -0.32800
N684        N  0.91425693  0.71028456  0.74013226    -0.27100
C685        C  0.93152469  0.72157661  0.72606103    -0.03200
C686        C  0.94648021  0.72889534  0.74621509     0.09000
C687        C  0.93734044  0.72141753  0.77258383     0.02800
H688        H  0.93308999  0.72377379  0.70282315     0.10500
H689        H  0.94437839  0.72342565  0.79334389     0.09600
N690        N  0.85690327  0.67562797  0.71017550    -0.34300
N691        N  0.84243461  0.66441625  0.72852501    -0.26500
C692        C  0.82541198  0.65426176  0.71381371    -0.01700
C693        C  0.82940275  0.65934686  0.68494978     0.06900
C694        C  0.84943553  0.67288169  0.68327979     0.05000
H695        H  0.81123270  0.64387791  0.72343500     0.10100
H696        H  0.85798277  0.68012098  0.66398724     0.08900
N697        N  0.76517523  0.63409906  0.48786775    -0.25400
N698        N  0.74690064  0.62266000  0.47847429    -0.33300
C699        C  0.74628532  0.62614089  0.45017556     0.02900
C700        C  0.76504775  0.64038936  0.44143425     0.08900
C701        C  0.77671790  0.64520208  0.46571984    -0.04200
H702        H  0.73306550  0.61912748  0.43715361     0.09600
H703        H  0.79228549  0.65621389  0.46738153     0.10800
Cu704      Cu  0.72334711  0.60361983  0.50465579     0.44200
Cu705      Cu  0.77311095  0.63461915  0.53070526     0.42000
Cu706      Cu  0.73330313  0.60290822  0.58075549     0.43900
N707        N  0.70174101  0.58675485  0.53498341    -0.32800
N708        N  0.70528318  0.58647020  0.56288644    -0.27100
C709        C  0.68803515  0.57493348  0.57687526    -0.03200
C710        C  0.67308374  0.56767442  0.55671945     0.09000
C711        C  0.68220073  0.57544443  0.53044432     0.02800
H712        H  0.68647409  0.57253765  0.60007092     0.10500
H713        H  0.67515219  0.57356545  0.50972849     0.09600
N714        N  0.76254938  0.62146692  0.59302709    -0.34300
N715        N  0.77696334  0.63296231  0.57478542    -0.26500
C716        C  0.79394876  0.64323516  0.58955450    -0.01700
C717        C  0.78999231  0.63793054  0.61834514     0.06900
C718        C  0.77001764  0.62414275  0.61991163     0.05000
H719        H  0.80807989  0.65383913  0.58002061     0.10100
H720        H  0.76150899  0.61668305  0.63912795     0.08900
N721        N  0.37136094  0.44003475  0.40030222    -0.25400
N722        N  0.36727972  0.43596203  0.37241491    -0.33300
C723        C  0.34773900  0.42746695  0.36863644     0.02900
C724        C  0.33918305  0.42619370  0.39537184     0.08900
C725        C  0.35446468  0.43420973  0.41502895    -0.04200
H726        H  0.34029015  0.42212934  0.34806046     0.09600
H727        H  0.35335489  0.43525020  0.43834053     0.10800
Cu728      Cu  0.38807652  0.44086433  0.34080597     0.44200
Cu729      Cu  0.39957012  0.45221897  0.41710258     0.42000
Cu730      Cu  0.43790398  0.46070644  0.36459904     0.43900
N731        N  0.41091126  0.44578669  0.31314508    -0.32800
N732        N  0.42924767  0.45305483  0.32181714    -0.27100
C733        C  0.44031242  0.45371661  0.29899320    -0.03200
C734        C  0.42828973  0.44655887  0.27497609     0.09000
C735        C  0.40978334  0.44162438  0.28460022     0.02800
H736        H  0.45579832  0.45861305  0.29999796     0.10500
H737        H  0.39639250  0.43507705  0.27199847     0.09600
N738        N  0.44271740  0.46630904  0.40872164    -0.34300
N739        N  0.42886246  0.46325647  0.42787996    -0.26500
C740        C  0.43684204  0.46786413  0.45455706    -0.01700
C741        C  0.45655978  0.47406672  0.45186808     0.06900
C742        C  0.45983601  0.47292375  0.42265917     0.05000
H743        H  0.42881182  0.46651035  0.47440415     0.10100
H744        H  0.47354983  0.47635251  0.41229921     0.08900
N745        N  0.58175527  0.52400777  0.56858922    -0.25400
N746        N  0.58588292  0.52828360  0.59642811    -0.33300
C747        C  0.60543482  0.53683906  0.60015596     0.02900
C748        C  0.61394356  0.53793678  0.57344098     0.08900
C749        C  0.59862783  0.52975670  0.55384787    -0.04200
H750        H  0.61292234  0.54234108  0.62067246     0.09600
H751        H  0.59969798  0.52856551  0.53055754     0.10800
Cu752      Cu  0.56514634  0.52358815  0.62803080     0.44200
Cu753      Cu  0.55354546  0.51172438  0.55178090     0.42000
Cu754      Cu  0.51535707  0.50379197  0.60405849     0.43900
N755        N  0.54229947  0.51878592  0.65558105    -0.32800
N756        N  0.52398162  0.51153619  0.64683271    -0.27100
C757        C  0.51289228  0.51092760  0.66958551    -0.03200
C758        C  0.52487688  0.51810213  0.69363884     0.09000
C759        C  0.54338925  0.52298932  0.68411002     0.02800
H760        H  0.49741127  0.50604129  0.66851059     0.10500
H761        H  0.55675502  0.52951887  0.69676726     0.09600
N762        N  0.51049608  0.49800160  0.55998048    -0.34300
N763        N  0.52430827  0.50083489  0.54088859    -0.26500
C764        C  0.51633460  0.49616746  0.51420940    -0.01700
C765        C  0.49666212  0.49015573  0.51682984     0.06900
C766        C  0.49340862  0.49147240  0.54599960     0.05000
H767        H  0.52434192  0.49736128  0.49440514     0.10100
H768        H  0.47973363  0.48822000  0.55629994     0.08900
N769        N  0.52128261  0.99691512  0.14810560    -0.25400
N770        N  0.53958725  0.00818849  0.15746961    -0.33300
C771        C  0.54016088  0.00470255  0.18577797     0.02900
C772        C  0.52134030  0.99062475  0.19455309     0.08900
C773        C  0.50967899  0.98591711  0.17027912    -0.04200
H774        H  0.55338801  0.01158734  0.19878161     0.09600
H775        H  0.49407396  0.97503451  0.16863829     0.10800
Cu776      Cu  0.56321997  0.02700673  0.13123303     0.44200
Cu777      Cu  0.51337885  0.99642834  0.10526693     0.42000
Cu778      Cu  0.55327268  0.02777763  0.05512830     0.43900
N779        N  0.58485137  0.04375942  0.10086859    -0.32800
N780        N  0.58130857  0.04407325  0.07297283    -0.27100
C781        C  0.59856196  0.05556123  0.05897077    -0.03200
C782        C  0.61351823  0.06275780  0.07910960     0.09000
C783        C  0.60439884  0.05500275  0.10538908     0.02800
H784        H  0.60011878  0.05798153  0.03578099     0.10500
H785        H  0.61144620  0.05686597  0.12610153     0.09600
N786        N  0.52400379  0.00935687  0.04287925    -0.34300
N787        N  0.50955574  0.99799467  0.06116073    -0.26500
C788        C  0.49256434  0.98775385  0.04640079    -0.01700
C789        C  0.49655349  0.99294026  0.01757383     0.06900
C790        C  0.51655257  0.00662558  0.01597492     0.05000
H791        H  0.47840989  0.97723974  0.05596275     0.10100
H792        H  0.52509074  0.01396688  0.99672256     0.08900
N793        N  0.43224084  0.96737016  0.82050571    -0.25400
N794        N  0.41391439  0.95609988  0.81122355    -0.33300
C795        C  0.41329422  0.95952827  0.78290260     0.02900
C796        C  0.43210720  0.97356083  0.77402875     0.08900
C797        C  0.44381126  0.97830637  0.79826323    -0.04200
H798        H  0.40004140  0.95263457  0.76995498     0.09600
H799        H  0.45942607  0.98916968  0.79982684     0.10800
Cu800      Cu  0.39030867  0.93737876  0.83758636     0.44200
Cu801      Cu  0.44022275  0.96792164  0.86332650     0.42000
Cu802      Cu  0.40029985  0.93694648  0.91371389     0.43900
N803        N  0.36865484  0.92091785  0.86808966    -0.32800
N804        N  0.37221470  0.92075461  0.89601473    -0.27100
C805        C  0.35495380  0.90951912  0.91012972    -0.03200
C806        C  0.33997122  0.90232954  0.89003553     0.09000
C807        C  0.34908656  0.90982343  0.86366076     0.02800
H808        H  0.35341535  0.90727884  0.93335966     0.10500
H809        H  0.34202764  0.90790880  0.84294459     0.09600
N810        N  0.42963032  0.95517149  0.92579524    -0.34300
N811        N  0.44408792  0.96638913  0.90743450    -0.26500
C812        C  0.46112180  0.97652759  0.92211976    -0.01700
C813        C  0.45714918  0.97142447  0.95097780     0.06900
C814        C  0.43711667  0.95789715  0.95267341     0.05000
H815        H  0.47529196  0.98692863  0.91249009     0.10100
H816        H  0.42857811  0.95066825  0.97197672     0.08900
N817        N  0.19045123  0.84475492  0.98068161    -0.25400
N818        N  0.20884332  0.85240822  0.98937484    -0.33300
C819        C  0.20986092  0.85655510  0.01792067     0.02900
C820        C  0.19122609  0.85120943  0.02751757     0.08900
C821        C  0.17924414  0.84382424  0.00348099    -0.04200
H822        H  0.22326061  0.86340145  0.03053105     0.09600
H823        H  0.16368787  0.83862996  0.00243220     0.10800
Cu824      Cu  0.23187689  0.85790830  0.96167833     0.44200
Cu825      Cu  0.18189760  0.83707422  0.93787218     0.42000
Cu826      Cu  0.22043117  0.84660858  0.88525289     0.43900
N827        N  0.25273981  0.86317250  0.92994307    -0.32800
N828        N  0.24865479  0.85910339  0.90205330    -0.27100
C829        C  0.26555473  0.86504253  0.88728050    -0.03200
C830        C  0.28085136  0.87313634  0.90689801     0.09000
C831        C  0.27230121  0.87178587  0.93366911     0.02800
H832        H  0.26664194  0.86395261  0.86397379     0.10500
H833        H  0.27975470  0.87707387  0.95425012     0.09600
N834        N  0.19108396  0.83515249  0.87448809    -0.34300
N835        N  0.17713395  0.83169875  0.89370728    -0.26500
C836        C  0.15997935  0.82491147  0.87979103    -0.01700
C837        C  0.16333898  0.82407782  0.85053428     0.06900
C838        C  0.18313842  0.83063975  0.84779140     0.05000
H839        H  0.14618502  0.82117021  0.89019935     0.10100
H840        H  0.19124369  0.83230843  0.82790279     0.08900
N841        N  0.09600035  0.78662358  0.65561160    -0.25400
N842        N  0.07759318  0.77887789  0.64692622    -0.33300
C843        C  0.07656780  0.77461052  0.61842378     0.02900
C844        C  0.09521197  0.77997369  0.60885102     0.08900
C845        C  0.10720886  0.78749576  0.63285277    -0.04200
H846        H  0.06316182  0.76769219  0.60582351     0.09600
H847        H  0.12278194  0.79276261  0.63390510     0.10800
Cu848      Cu  0.05455820  0.77346480  0.67456468     0.44200
Cu849      Cu  0.10459436  0.79454192  0.69835045     0.42000
Cu850      Cu  0.06610353  0.78526030  0.75086687     0.43900
N851        N  0.03371887  0.76832955  0.70627915    -0.32800
N852        N  0.03784128  0.77258374  0.73412492    -0.27100
C853        C  0.02094890  0.76665488  0.74891591    -0.03200
C854        C  0.00561671  0.75837386  0.72935617     0.09000
C855        C  0.01414082  0.75960556  0.70260085     0.02800
H856        H  0.01989094  0.76786402  0.77220463     0.10500
H857        H  0.00665811  0.75414887  0.68207189     0.09600
N858        N  0.09545576  0.79675459  0.76165706    -0.34300
N859        N  0.10939158  0.80011291  0.74246849    -0.26500
C860        C  0.12654488  0.80691658  0.75639552    -0.01700
C861        C  0.12320024  0.80786242  0.78562947     0.06900
C862        C  0.10341007  0.80134754  0.78834695     0.05000
H863        H  0.14032374  0.81057763  0.74601523     0.10100
H864        H  0.09531306  0.79974814  0.80821871     0.08900
C865        C  0.14923471  0.81835298  0.82762014    -0.11400
C866        C  0.13729938  0.81360252  0.80855472    -0.13000
C867        C  0.31909477  0.89119829  0.89576260    -0.11400
C868        C  0.30159304  0.88257270  0.90061395    -0.13000
C869        C  0.48271834  0.98538412  0.99405770    -0.11400
C870        C  0.47101465  0.97896186  0.97445568    -0.13000
C871        C  0.47065925  0.47976176  0.47479551    -0.11400
C872        C  0.48258536  0.48447500  0.49387302    -0.13000
C873        C  0.65220249  0.55626860  0.56234042    -0.11400
C874        C  0.63468899  0.54746873  0.56713469    -0.13000
C875        C  0.96736520  0.74013502  0.74054914    -0.11400
C876        C  0.98487161  0.74884786  0.73569546    -0.13000
C877        C  0.81554177  0.65183596  0.66145997    -0.11400
C878        C  0.80383723  0.64544736  0.64185498    -0.13000
C879        C  0.30090592  0.40786948  0.40638552    -0.11400
C880        C  0.31842439  0.41666426  0.40161015    -0.13000
C881        C  0.13750766  0.31175014  0.30784803    -0.11400
C882        C  0.14920066  0.31827898  0.32745739    -0.13000
C883        C  0.65191151  0.08294602  0.06868257    -0.11400
C884        C  0.63439841  0.07414494  0.07347865    -0.13000
C885        C  0.96820997  0.21400936  0.23397882    -0.11400
C886        C  0.98571838  0.22278349  0.22912787    -0.13000
C887        C  0.81596965  0.15067491  0.16096129    -0.11400
C888        C  0.80405000  0.14598588  0.14188099    -0.13000
C889        C  0.77060937  0.10628510  0.88932012    -0.11400
C890        C  0.76708314  0.10985663  0.91336310    -0.13000
C891        C  0.84973664  0.19131517  0.41329565    -0.11400
C892        C  0.85320603  0.18771729  0.38923744    -0.13000
C893        C  0.80753970  0.14279619  0.66082068    -0.11400
C894        C  0.81230472  0.15468605  0.64167543    -0.13000
C895        C  0.88452369  0.32421686  0.57271643    -0.11400
C896        C  0.87587432  0.30672263  0.56784844    -0.13000
C897        C  0.97310399  0.47619637  0.49458652    -0.11400
C898        C  0.97955740  0.48794321  0.47503399    -0.13000
C899        C  0.73594554  0.97335104  0.73025739    -0.11400
C900        C  0.74465292  0.99086059  0.73506289    -0.13000
C901        C  0.64653480  0.82136919  0.80819919    -0.11400
C902        C  0.63988066  0.80963734  0.82775714    -0.13000
C903        C  0.18590445  0.85437234  0.05610192    -0.11400
C904        C  0.18231326  0.85794295  0.08010779    -0.13000
C905        C  0.07641845  0.65743146  0.40137003    -0.11400
C906        C  0.06780626  0.63992642  0.39656073    -0.13000
C907        C  0.14061667  0.80968930  0.32776304    -0.11400
C908        C  0.14539831  0.82158583  0.30862340    -0.13000
C909        C  0.10412806  0.77319120  0.55630000    -0.11400
C910        C  0.10054611  0.77677486  0.58030104    -0.13000
C911        C  0.20921468  0.97366589  0.23458333    -0.11400
C912        C  0.21785776  0.99117075  0.23940857    -0.13000
C913        C  0.31318982  0.15493598  0.14175205    -0.11400
C914        C  0.30671498  0.14319281  0.16130697    -0.13000
C915        C  0.54226771  0.64021250  0.90096824    -0.11400
C916        C  0.55091249  0.65771132  0.90581987    -0.13000
C917        C  0.51965996  0.52134325  0.72223956    -0.11400
C918        C  0.51613572  0.52491824  0.74628034    -0.13000
C919        C  0.41070824  0.32424862  0.06779845    -0.11400
C920        C  0.40204964  0.30674703  0.06298120    -0.13000
C921        C  0.47893634  0.48811958  0.97465084    -0.11400
C922        C  0.47417537  0.47623201  0.99379934    -0.13000
C923        C  0.43690294  0.43972607  0.22226327    -0.11400
C924        C  0.43345298  0.44332686  0.24633411    -0.13000
C925        C  0.43775525  0.98238790  0.74583801    -0.11400
C926        C  0.44106414  0.98941537  0.72191311    -0.13000
C927        C  0.47979611  0.97912722  0.47505309    -0.11400
C928        C  0.47402392  0.98600184  0.49329873    -0.13000
C929        C  0.51234347  0.97468942  0.24660567    -0.11400
C930        C  0.51565589  0.98172887  0.22269144    -0.13000
C931        C  0.30371533  0.18506382  0.88900231    -0.11400
C932        C  0.31073701  0.18830471  0.91292320    -0.13000
C933        C  0.30953215  0.10920921  0.38977843    -0.11400
C934        C  0.31655822  0.11249777  0.41370251    -0.13000
C935        C  0.39509308  0.07593843  0.56604953    -0.11400
C936        C  0.40371629  0.06738879  0.56977724    -0.13000
C937        C  0.31396225  0.14662744  0.64203941    -0.11400
C938        C  0.30715131  0.15244732  0.66031786    -0.13000
C939        C  0.18258985  0.31531095  0.55614016    -0.11400
C940        C  0.17932303  0.30836033  0.58011531    -0.13000
C941        C  0.21745620  0.23157960  0.73335410    -0.11400
C942        C  0.22608149  0.22303656  0.73709073    -0.13000
C943        C  0.10732208  0.32244120  0.05549535    -0.11400
C944        C  0.10405743  0.31540962  0.07941681    -0.13000
C945        C  0.14610098  0.31214713  0.80858630    -0.11400
C946        C  0.14031213  0.31897963  0.82687144    -0.13000
C947        C  0.06916709  0.39957715  0.90296707    -0.11400
C948        C  0.06048255  0.40806590  0.89928460    -0.13000
C949        C  0.98265745  0.44565790  0.74716926    -0.11400
C950        C  0.97567638  0.44243832  0.72322291    -0.13000
C951        C  0.97901224  0.47828803  0.97581903    -0.11400
C952        C  0.97215310  0.48405459  0.99409894    -0.13000
C953        C  0.96951810  0.51816605  0.22245752    -0.11400
C954        C  0.97652465  0.52149037  0.24639969    -0.13000
C955        C  0.63714978  0.85211743  0.55581070    -0.11400
C956        C  0.64417093  0.85536634  0.57973243    -0.13000
C957        C  0.55889744  0.88913596  0.40351676    -0.11400
C958        C  0.55029873  0.89769957  0.39971079    -0.13000
C959        C  0.64919965  0.77914006  0.08030501    -0.11400
C960        C  0.64219052  0.77588870  0.05637589    -0.13000
C961        C  0.64669696  0.81273959  0.30889346    -0.11400
C962        C  0.64000102  0.81862405  0.32724349    -0.13000
C963        C  0.84533130  0.64153823  0.91416872    -0.11400
C964        C  0.84864660  0.64857038  0.89024193    -0.13000
C965        C  0.88263882  0.56353873  0.06632602    -0.11400
C966        C  0.89121331  0.55493871  0.07004083    -0.13000
C967        C  0.77392847  0.65633456  0.38938408    -0.11400
C968        C  0.77066555  0.64930249  0.41330048    -0.13000
C969        C  0.73599935  0.73330830  0.23611720    -0.11400
C970        C  0.72743758  0.74190929  0.23231708    -0.13000
C971        C  0.80678260  0.65206653  0.16104622    -0.11400
C972        C  0.81255717  0.64517599  0.14282550    -0.13000
loop_ 
_geom_bond_atom_site_label_1 
_geom_bond_atom_site_label_2 
_geom_bond_distance 
_geom_bond_site_symmetry_2 
_ccdc_geom_bond_type 
N1            N2   1.324       .  A
N1            C5   1.349       .  A
N1           Cu9   2.094       .  S
N2            C3   1.345       .  A
N2           Cu8   2.071       .  S
C3            C4   1.378       .  A
C3            H6   1.082       .  S
C4            C5   1.384       .  A
C4          C969   1.442       .  S
C5            H7   1.082       .  S
Cu8          N11   2.070       .  S
Cu9          N19   2.094       .  S
Cu10         N12   2.066       .  S
Cu10         N18   2.066       .  S
N11          N12   1.322       .  A
N11          C15   1.344       .  A
N12          C13   1.345       .  A
C13          C14   1.379       .  A
C13          H16   1.082       .  S
C14          C15   1.379       .  A
C14         C967   1.435       .  S
C15          H17   1.082       .  S
N18          N19   1.324       .  A
N18          C22   1.344       .  A
N19          C20   1.349       .  A
C20          C21   1.384       .  A
C20          H23   1.082       .  S
C21          C22   1.376       .  A
C21         C971   1.440       .  S
C22          H24   1.082       .  S
N25          N26   1.324       .  A
N25          C29   1.349       .  A
N25         Cu33   2.094       .  S
N26          C27   1.345       .  A
N26         Cu32   2.071       .  S
C27          C28   1.378       .  A
C27          H30   1.082       .  S
C28          C29   1.384       .  A
C28         C965   1.442       .  S
C29          H31   1.082       .  S
Cu32         N35   2.070   1_554  S
Cu33         N43   2.094       .  S
Cu34         N36   2.066   1_554  S
Cu34         N42   2.066       .  S
N35          N36   1.322       .  A
N35          C39   1.344       .  A
N36          C37   1.345       .  A
C37          C38   1.380       .  A
C37          H40   1.082       .  S
C38          C39   1.379       .  A
C38         C963   1.436       .  S
C39          H41   1.082       .  S
N42          N43   1.324       .  A
N42          C46   1.344       .  A
N43          C44   1.349       .  A
C44          C45   1.384       .  A
C44          H47   1.082       .  S
C45          C46   1.376       .  A
C45         C972   1.440       .  S
C46          H48   1.082       .  S
N49          N50   1.324       .  A
N49          C53   1.349       .  A
N49         Cu57   2.092       .  S
N50          C51   1.345       .  A
N50         Cu56   2.071       .  S
C51          C52   1.378       .  A
C51          H54   1.082       .  S
C52          C53   1.384       .  A
C52         C970   1.442       .  S
C53          H55   1.082       .  S
Cu56         N59   2.070       .  S
Cu57         N67   2.092       .  S
Cu58         N60   2.066       .  S
Cu58         N66   2.065       .  S
N59          N60   1.322       .  A
N59          C63   1.344       .  A
N60          C61   1.345       .  A
C61          C62   1.379       .  A
C61          H64   1.082       .  S
C62          C63   1.379       .  A
C62         C959   1.435       .  S
C63          H65   1.082       .  S
N66          N67   1.324       .  A
N66          C70   1.344       .  A
N67          C68   1.349       .  A
C68          C69   1.384       .  A
C68          H71   1.082       .  S
C69          C70   1.376       .  A
C69         C961   1.440       .  S
C70          H72   1.082       .  S
N73          N74   1.324       .  A
N73          C77   1.349       .  A
N73         Cu81   2.092       .  S
N74          C75   1.345       .  A
N74         Cu80   2.072       .  S
C75          C76   1.378       .  A
C75          H78   1.082       .  S
C76          C77   1.384       .  A
C76         C957   1.442       .  S
C77          H79   1.082       .  S
Cu80         N83   2.071       .  S
Cu81         N91   2.092       .  S
Cu82         N84   2.066       .  S
Cu82         N90   2.066       .  S
N83          N84   1.322       .  A
N83          C87   1.344       .  A
N84          C85   1.345       .  A
C85          C86   1.379       .  A
C85          H88   1.082       .  S
C86          C87   1.379       .  A
C86         C955   1.435       .  S
C87          H89   1.082       .  S
N90          N91   1.324       .  A
N90          C94   1.344       .  A
N91          C92   1.349       .  A
C92          C93   1.384       .  A
C92          H95   1.082       .  S
C93          C94   1.376       .  A
C93         C962   1.440       .  S
C94          H96   1.082       .  S
N97          N98   1.324       .  A
N97         C101   1.349       .  A
N97        Cu105   2.094       .  S
N98          C99   1.345       .  A
N98        Cu104   2.071       .  S
C99         C100   1.378       .  A
C99         H102   1.082       .  S
C100        C101   1.384       .  A
C100        C966   1.442       .  S
C101        H103   1.082       .  S
Cu104       N107   2.070       .  S
Cu105       N115   2.094       .  S
Cu106       N108   2.066       .  S
Cu106       N114   2.066       .  S
N107        N108   1.322       .  A
N107        C111   1.344       .  A
N108        C109   1.346       .  A
C109        C110   1.380       .  A
C109        H112   1.082       .  S
C110        C111   1.379       .  A
C110        C953   1.436       .  S
C111        H113   1.082       .  S
N114        N115   1.324       .  A
N114        C118   1.344       .  A
N115        C116   1.349       .  A
C116        C117   1.384       .  A
C116        H119   1.082   1_554  S
C117        C118   1.376       .  A
C117        C952   1.440   1_554  S
C118        H120   1.082       .  S
N121        N122   1.324       .  A
N121        C125   1.349       .  A
N121       Cu129   2.093       .  S
N122        C123   1.345       .  A
N122       Cu128   2.071       .  S
C123        C124   1.378       .  A
C123        H126   1.082       .  S
C124        C125   1.384       .  A
C124        C948   1.442       .  S
C125        H127   1.082       .  S
Cu128       N131   2.070       .  S
Cu129       N139   2.094       .  S
Cu130       N132   2.066       .  S
Cu130       N138   2.066       .  S
N131        N132   1.322   1_455  A
N131        C135   1.344       .  A
N132        C133   1.345       .  A
C133        C134   1.379       .  A
C133        H136   1.082       .  S
C134        C135   1.379   1_655  A
C134        C949   1.435       .  S
C135        H137   1.082       .  S
N138        N139   1.324   1_655  A
N138        C142   1.344       .  A
N139        C140   1.349   1_455  A
C140        C141   1.384       .  A
C140        H143   1.082   1_655  S
C141        C142   1.376       .  A
C141        C951   1.440       .  S
C142        H144   1.082       .  S
N145        N146   1.324       .  A
N145        C149   1.349       .  A
N145       Cu153   2.093       .  S
N146        C147   1.345       .  A
N146       Cu152   2.071       .  S
C147        C148   1.378       .  A
C147        H150   1.082       .  S
C148        C149   1.384       .  A
C148        C947   1.442       .  S
C149        H151   1.082       .  S
Cu152       N155   2.070       .  S
Cu153       N163   2.093       .  S
Cu154       N156   2.066       .  S
Cu154       N162   2.066       .  S
N155        N156   1.322       .  A
N155        C159   1.344   1_556  A
N156        C157   1.345   1_556  A
C157        C158   1.379       .  A
C157        H160   1.082       .  S
C158        C159   1.379       .  A
C158        C943   1.435       .  S
C159        H161   1.082       .  S
N162        N163   1.324       .  A
N162        C166   1.344       .  A
N163        C164   1.349       .  A
C164        C165   1.384       .  A
C164        H167   1.082       .  S
C165        C166   1.376       .  A
C165        C946   1.440       .  S
C166        H168   1.082       .  S
N169        N170   1.324       .  A
N169        C173   1.349       .  A
N169       Cu177   2.093       .  S
N170        C171   1.345       .  A
N170       Cu176   2.071       .  S
C171        C172   1.378       .  A
C171        H174   1.082       .  S
C172        C173   1.384       .  A
C172        C941   1.442       .  S
C173        H175   1.082       .  S
Cu176       N179   2.070       .  S
Cu177       N187   2.093       .  S
Cu178       N180   2.066       .  S
Cu178       N186   2.066       .  S
N179        N180   1.322       .  A
N179        C183   1.344       .  A
N180        C181   1.345       .  A
C181        C182   1.379       .  A
C181        H184   1.082       .  S
C182        C183   1.379       .  A
C182        C940   1.435       .  S
C183        H185   1.082       .  S
N186        N187   1.324       .  A
N186        C190   1.344       .  A
N187        C188   1.349       .  A
C188        C189   1.384       .  A
C188        H191   1.082       .  S
C189        C190   1.376       .  A
C189        C945   1.440       .  S
C190        H192   1.082       .  S
N193        N194   1.324       .  A
N193        C197   1.349       .  A
N193       Cu201   2.094       .  S
N194        C195   1.345       .  A
N194       Cu200   2.071       .  S
C195        C196   1.378       .  A
C195        H198   1.082       .  S
C196        C197   1.384       .  A
C196        C935   1.442       .  S
C197        H199   1.082       .  S
Cu200       N203   2.070       .  S
Cu201       N211   2.094       .  S
Cu202       N204   2.066       .  S
Cu202       N210   2.066       .  S
N203        N204   1.322       .  A
N203        C207   1.344       .  A
N204        C205   1.345       .  A
C205        C206   1.379       .  A
C205        H208   1.082       .  S
C206        C207   1.379       .  A
C206        C934   1.435       .  S
C207        H209   1.082       .  S
N210        N211   1.324       .  A
N210        C214   1.344       .  A
N211        C212   1.349       .  A
C212        C213   1.384       .  A
C212        H215   1.082       .  S
C213        C214   1.376       .  A
C213        C937   1.440       .  S
C214        H216   1.082       .  S
N217        N218   1.324       .  A
N217        C221   1.349       .  A
N217       Cu225   2.094       .  S
N218        C219   1.345       .  A
N218       Cu224   2.071       .  S
C219        C220   1.378       .  A
C219        H222   1.082       .  S
C220        C221   1.384       .  A
C220        C942   1.442       .  S
C221        H223   1.082       .  S
Cu224       N227   2.070       .  S
Cu225       N235   2.094       .  S
Cu226       N228   2.066       .  S
Cu226       N234   2.066       .  S
N227        N228   1.322       .  A
N227        C231   1.344       .  A
N228        C229   1.345       .  A
C229        C230   1.379       .  A
C229        H232   1.082       .  S
C230        C231   1.379       .  A
C230        C931   1.435       .  S
C231        H233   1.082       .  S
N234        N235   1.324       .  A
N234        C238   1.344       .  A
N235        C236   1.349       .  A
C236        C237   1.384       .  A
C236        H239   1.082       .  S
C237        C238   1.376       .  A
C237        C938   1.440       .  S
C238        H240   1.082       .  S
N241        N242   1.324       .  A
N241        C245   1.349       .  A
N241       Cu249   2.094       .  S
N242        C243   1.345       .  A
N242       Cu248   2.071       .  S
C243        C244   1.378       .  A
C243        H246   1.082       .  S
C244        C245   1.384       .  A
C244        C958   1.442       .  S
C245        H247   1.082       .  S
Cu248       N251   2.070       .  S
Cu249       N259   2.094       .  S
Cu250       N252   2.065       .  S
Cu250       N258   2.065       .  S
N251        N252   1.322       .  A
N251        C255   1.344       .  A
N252        C253   1.345       .  A
C253        C254   1.379       .  A
C253        H256   1.082       .  S
C254        C255   1.379       .  A
C254        C929   1.435       .  S
C255        H257   1.082       .  S
N258        N259   1.324       .  A
N258        C262   1.344       .  A
N259        C260   1.349       .  A
C260        C261   1.384       .  A
C260        H263   1.082       .  S
C261        C262   1.376       .  A
C261        C927   1.440       .  S
C262        H264   1.082       .  S
N265        N266   1.324       .  A
N265        C269   1.349       .  A
N265       Cu273   2.094       .  S
N266        C267   1.345       .  A
N266       Cu272   2.071       .  S
C267        C268   1.378       .  A
C267        H270   1.082       .  S
C268        C269   1.384       .  A
C268        C936   1.442       .  S
C269        H271   1.082       .  S
Cu272       N275   2.070       .  S
Cu273       N283   2.094       .  S
Cu274       N276   2.066       .  S
Cu274       N282   2.066       .  S
N275        N276   1.322       .  A
N275        C279   1.344       .  A
N276        C277   1.345   1_545  A
C277        C278   1.379       .  A
C277        H280   1.082       .  S
C278        C279   1.379   1_565  A
C278        C926   1.435       .  S
C279        H281   1.082       .  S
N282        N283   1.324       .  A
N282        C286   1.344   1_545  A
N283        C284   1.349       .  A
C284        C285   1.384   1_545  A
C284        H287   1.082       .  S
C285        C286   1.376       .  A
C285        C928   1.440       .  S
C286        H288   1.082       .  S
N289        N290   1.323       .  A
N289        C293   1.346       .  A
N289       Cu297   2.079       .  S
N290        C291   1.345       .  A
N290       Cu296   2.070       .  S
C291        C292   1.378       .  A
C291        H294   1.082       .  S
C292        C293   1.381       .  A
C292        C919   1.437       .  S
C293        H295   1.082       .  S
Cu296       N299   2.070       .  S
Cu297       N307   2.079       .  S
Cu298       N300   2.072       .  S
Cu298       N306   2.072       .  S
N299        N300   1.322       .  A
N299        C303   1.345       .  A
N300        C301   1.346       .  A
C301        C302   1.380       .  A
C301        H304   1.082       .  S
C302        C303   1.379       .  A
C302        C923   1.436       .  S
C303        H305   1.082       .  S
N306        N307   1.324       .  A
N306        C310   1.345       .  A
N307        C308   1.347       .  A
C308        C309   1.381       .  A
C308        H311   1.082   1_554  S
C309        C310   1.378       .  A
C309        C922   1.437   1_554  S
C310        H312   1.082       .  S
N313        N314   1.323       .  A
N313        C317   1.347       .  A
N313       Cu321   2.079       .  S
N314        C315   1.345       .  A
N314       Cu320   2.071       .  S
C315        C316   1.378       .  A
C315        H318   1.082       .  S
C316        C317   1.381       .  A
C316        C915   1.437       .  S
C317        H319   1.082       .  S
Cu320       N323   2.070       .  S
Cu321       N331   2.079       .  S
Cu322       N324   2.072       .  S
Cu322       N330   2.072       .  S
N323        N324   1.322       .  A
N323        C327   1.345       .  A
N324        C325   1.346       .  A
C325        C326   1.380       .  A
C325        H328   1.082       .  S
C326        C327   1.379       .  A
C326        C918   1.437       .  S
C327        H329   1.082       .  S
N330        N331   1.324       .  A
N330        C334   1.345       .  A
N331        C332   1.347       .  A
C332        C333   1.381       .  A
C332        H335   1.082       .  S
C333        C334   1.378       .  A
C333        C921   1.437       .  S
C334        H336   1.082       .  S
N337        N338   1.323       .  A
N337        C341   1.347       .  A
N337       Cu345   2.074   1_556  S
N338        C339   1.343       .  A
N338       Cu344   2.068   1_556  S
C339        C340   1.378       .  A
C339        H342   1.082       .  S
C340        C341   1.380       .  A
C340        C932   1.435       .  S
C341        H343   1.082       .  S
Cu344       N347   2.068       .  S
Cu345       N355   2.074       .  S
Cu346       N348   2.079       .  S
Cu346       N354   2.080       .  S
N347        N348   1.323       .  A
N347        C351   1.345       .  A
N348        C349   1.346       .  A
C349        C350   1.381       .  A
C349        H352   1.082       .  S
C350        C351   1.378       .  A
C350        C920   1.437       .  S
C351        H353   1.082       .  S
N354        N355   1.324       .  A
N354        C358   1.346       .  A
N355        C356   1.345       .  A
C356        C357   1.379       .  A
C356        H359   1.082       .  S
C357        C358   1.380       .  A
C357        C913   1.438       .  S
C358        H360   1.082       .  S
N361        N362   1.323       .  A
N361        C365   1.347       .  A
N361       Cu369   2.074       .  S
N362        C363   1.344       .  A
N362       Cu368   2.068       .  S
C363        C364   1.378       .  A
C363        H366   1.082       .  S
C364        C365   1.380       .  A
C364        C933   1.435       .  S
C365        H367   1.082       .  S
Cu368       N371   2.068       .  S
Cu369       N379   2.074       .  S
Cu370       N372   2.079       .  S
Cu370       N378   2.080       .  S
N371        N372   1.323       .  A
N371        C375   1.345       .  A
N372        C373   1.346       .  A
C373        C374   1.381       .  A
C373        H376   1.082       .  S
C374        C375   1.378       .  A
C374        C912   1.438   1_545  S
C375        H377   1.082       .  S
N378        N379   1.324       .  A
N378        C382   1.346       .  A
N379        C380   1.345       .  A
C380        C381   1.379       .  A
C380        H383   1.082       .  S
C381        C382   1.380       .  A
C381        C914   1.438       .  S
C382        H384   1.082       .  S
N385        N386   1.323       .  A
N385        C389   1.347       .  A
N385       Cu393   2.079       .  S
N386        C387   1.345       .  A
N386       Cu392   2.072       .  S
C387        C388   1.378       .  A
C387        H390   1.082       .  S
C388        C389   1.381       .  A
C388        C905   1.438       .  S
C389        H391   1.082       .  S
Cu392       N395   2.071       .  S
Cu393       N403   2.079       .  S
Cu394       N396   2.072       .  S
Cu394       N402   2.072       .  S
N395        N396   1.322       .  A
N395        C399   1.345       .  A
N396        C397   1.346       .  A
C397        C398   1.380       .  A
C397        H400   1.082       .  S
C398        C399   1.379       .  A
C398        C909   1.437       .  S
C399        H401   1.082       .  S
N402        N403   1.324       .  A
N402        C406   1.345       .  A
N403        C404   1.347       .  A
C404        C405   1.381       .  A
C404        H407   1.082       .  S
C405        C406   1.378       .  A
C405        C907   1.437       .  S
C406        H408   1.082       .  S
N409        N410   1.323       .  A
N409        C413   1.347       .  A
N409       Cu417   2.079       .  S
N410        C411   1.345       .  A
N410       Cu416   2.072       .  S
C411        C412   1.378       .  A
C411        H414   1.082       .  S
C412        C413   1.381       .  A
C412        C911   1.438       .  S
C413        H415   1.082       .  S
Cu416       N419   2.072       .  S
Cu417       N427   2.079       .  S
Cu418       N420   2.072       .  S
Cu418       N426   2.072       .  S
N419        N420   1.322       .  A
N419        C423   1.345       .  A
N420        C421   1.346       .  A
C421        C422   1.380       .  A
C421        H424   1.082       .  S
C422        C423   1.379       .  A
C422        C904   1.437       .  S
C423        H425   1.082       .  S
N426        N427   1.324       .  A
N426        C430   1.345       .  A
N427        C428   1.347       .  A
C428        C429   1.381       .  A
C428        H431   1.082       .  S
C429        C430   1.378       .  A
C429        C908   1.437       .  S
C430        H432   1.082       .  S
N433        N434   1.323       .  A
N433        C437   1.346       .  A
N433       Cu441   2.073       .  S
N434        C435   1.344       .  A
N434       Cu440   2.068       .  S
C435        C436   1.378       .  A
C435        H438   1.082       .  S
C436        C437   1.380       .  A
C436        C956   1.435       .  S
C437        H439   1.082       .  S
Cu440       N443   2.068       .  S
Cu441       N451   2.074       .  S
Cu442       N444   2.080       .  S
Cu442       N450   2.080       .  S
N443        N444   1.323       .  A
N443        C447   1.345       .  A
N444        C445   1.346       .  A
C445        C446   1.381       .  A
C445        H448   1.082       .  S
C446        C447   1.378       .  A
C446        C899   1.438       .  S
C447        H449   1.082       .  S
N450        N451   1.324       .  A
N450        C454   1.346       .  A
N451        C452   1.345       .  A
C452        C453   1.379       .  A
C452        H455   1.082       .  S
C453        C454   1.380       .  A
C453        C901   1.438       .  S
C454        H456   1.082       .  S
N457        N458   1.323       .  A
N457        C461   1.346   1_556  A
N457       Cu465   2.073       .  S
N458        C459   1.344   1_556  A
N458       Cu464   2.068       .  S
C459        C460   1.378       .  A
C459        H462   1.082       .  S
C460        C461   1.380       .  A
C460        C960   1.435       .  S
C461        H463   1.082       .  S
Cu464       N467   2.068       .  S
Cu465       N475   2.074       .  S
Cu466       N468   2.079       .  S
Cu466       N474   2.080       .  S
N467        N468   1.323       .  A
N467        C471   1.345       .  A
N468        C469   1.346       .  A
C469        C470   1.381       .  A
C469        H472   1.082       .  S
C470        C471   1.378       .  A
C470        C916   1.437       .  S
C471        H473   1.082       .  S
N474        N475   1.324       .  A
N474        C478   1.346       .  A
N475        C476   1.345       .  A
C476        C477   1.379       .  A
C476        H479   1.082       .  S
C477        C478   1.380       .  A
C477        C902   1.438       .  S
C478        H480   1.082       .  S
N481        N482   1.323       .  A
N481        C485   1.347       .  A
N481       Cu489   2.074       .  S
N482        C483   1.343       .  A
N482       Cu488   2.067       .  S
C483        C484   1.378       .  A
C483        H486   1.082       .  S
C484        C485   1.380       .  A
C484        C950   1.435       .  S
C485        H487   1.082       .  S
Cu488       N491   2.068       .  S
Cu489       N499   2.074       .  S
Cu490       N492   2.079       .  S
Cu490       N498   2.079       .  S
N491        N492   1.323       .  A
N491        C495   1.345       .  A
N492        C493   1.346       .  A
C493        C494   1.381       .  A
C493        H496   1.082       .  S
C494        C495   1.378       .  A
C494        C895   1.437       .  S
C495        H497   1.082       .  S
N498        N499   1.324       .  A
N498        C502   1.346       .  A
N499        C500   1.345       .  A
C500        C501   1.379       .  A
C500        H503   1.082       .  S
C501        C502   1.380       .  A
C501        C897   1.438       .  S
C502        H504   1.082       .  S
N505        N506   1.323   1_655  A
N505        C509   1.347       .  A
N505       Cu513   2.074       .  S
N506        C507   1.344   1_455  A
N506       Cu512   2.068       .  S
C507        C508   1.378       .  A
C507        H510   1.082   1_655  S
C508        C509   1.380       .  A
C508        C954   1.436       .  S
C509        H511   1.082       .  S
Cu512       N515   2.068       .  S
Cu513       N523   2.075       .  S
Cu514       N516   2.080       .  S
Cu514       N522   2.080       .  S
N515        N516   1.323       .  A
N515        C519   1.345       .  A
N516        C517   1.346       .  A
C517        C518   1.381       .  A
C517        H520   1.082       .  S
C518        C519   1.378       .  A
C518        C906   1.438       .  S
C519        H521   1.082       .  S
N522        N523   1.324   1_455  A
N522        C526   1.347       .  A
N523        C524   1.345       .  A
C524        C525   1.379       .  A
C524        H527   1.082       .  S
C525        C526   1.380   1_655  A
C525        C898   1.438       .  S
C526        H528   1.082       .  S
N529        N530   1.323       .  A
N529        C533   1.346       .  A
N529       Cu537   2.079       .  S
N530        C531   1.345       .  A
N530       Cu536   2.070       .  S
C531        C532   1.378       .  A
C531        H534   1.082       .  S
C532        C533   1.381       .  A
C532        C896   1.437       .  S
C533        H535   1.082       .  S
Cu536       N539   2.070       .  S
Cu537       N547   2.079       .  S
Cu538       N540   2.072       .  S
Cu538       N546   2.072       .  S
N539        N540   1.322       .  A
N539        C543   1.344       .  A
N540        C541   1.346       .  A
C541        C542   1.380       .  A
C541        H544   1.082       .  S
C542        C543   1.379       .  A
C542        C891   1.436       .  S
C543        H545   1.082       .  S
N546        N547   1.324       .  A
N546        C550   1.345       .  A
N547        C548   1.347       .  A
C548        C549   1.381       .  A
C548        H551   1.082       .  S
C549        C550   1.378       .  A
C549        C894   1.437       .  S
C550        H552   1.082       .  S
N553        N554   1.322       .  A
N553        C557   1.346       .  A
N553       Cu561   2.072       .  S
N554        C555   1.345       .  A
N554       Cu560   2.071       .  S
C555        C556   1.379       .  A
C555        H558   1.082       .  S
C556        C557   1.380       .  A
C556        C889   1.437       .  S
C557        H559   1.082       .  S
Cu560       N563   2.071       .  S
Cu561       N571   2.072       .  S
Cu562       N564   2.079       .  S
Cu562       N570   2.080       .  S
N563        N564   1.323       .  A
N563        C567   1.345       .  A
N564        C565   1.347       .  A
C565        C566   1.381       .  A
C565        H568   1.082       .  S
C566        C567   1.378       .  A
C566        C900   1.438   1_545  S
C567        H569   1.082       .  S
N570        N571   1.324       .  A
N570        C574   1.347       .  A
N571        C572   1.345       .  A
C572        C573   1.378       .  A
C572        H575   1.082       .  S
C573        C574   1.381       .  A
C573        C893   1.437       .  S
C574        H576   1.082       .  S
N577        N578   1.323       .  A
N577        C581   1.347       .  A
N577       Cu585   2.079       .  S
N578        C579   1.345       .  A
N578       Cu584   2.070       .  S
C579        C580   1.378       .  A
C579        H582   1.082       .  S
C580        C581   1.381       .  A
C580        C885   1.437       .  S
C581        H583   1.082       .  S
Cu584       N587   2.070       .  S
Cu585       N595   2.080       .  S
Cu586       N588   2.072       .  S
Cu586       N594   2.072       .  S
N587        N588   1.322       .  A
N587        C591   1.344       .  A
N588        C589   1.346       .  A
C589        C590   1.380       .  A
C589        H592   1.082       .  S
C590        C591   1.379       .  A
C590        C892   1.436       .  S
C591        H593   1.082       .  S
N594        N595   1.324       .  A
N594        C598   1.345       .  A
N595        C596   1.347       .  A
C596        C597   1.381       .  A
C596        H599   1.082       .  S
C597        C598   1.378       .  A
C597        C887   1.438       .  S
C598        H600   1.082       .  S
N601        N602   1.323       .  A
N601        C605   1.347       .  A
N601       Cu609   2.079       .  S
N602        C603   1.345       .  A
N602       Cu608   2.070       .  S
C603        C604   1.378       .  A
C603        H606   1.082       .  S
C604        C605   1.381       .  A
C604        C883   1.437       .  S
C605        H607   1.082       .  S
Cu608       N611   2.070   1_554  S
Cu609       N619   2.079       .  S
Cu610       N612   2.073   1_554  S
Cu610       N618   2.073       .  S
N611        N612   1.322       .  A
N611        C615   1.345       .  A
N612        C613   1.346       .  A
C613        C614   1.380       .  A
C613        H616   1.082       .  S
C614        C615   1.379       .  A
C614        C890   1.437       .  S
C615        H617   1.082       .  S
N618        N619   1.324       .  A
N618        C622   1.345       .  A
N619        C620   1.347       .  A
C620        C621   1.381       .  A
C620        H623   1.082       .  S
C621        C622   1.378       .  A
C621        C888   1.438       .  S
C622        H624   1.082       .  S
N625        N626   1.323       .  A
N625        C629   1.347       .  A
N625       Cu633   2.074       .  S
N626        C627   1.344       .  A
N626       Cu632   2.068       .  S
C627        C628   1.378       .  A
C627        H630   1.082       .  S
C628        C629   1.380       .  A
C628        C939   1.435       .  S
C629        H631   1.082       .  S
Cu632       N635   2.068       .  S
Cu633       N643   2.074       .  S
Cu634       N636   2.079       .  S
Cu634       N642   2.080       .  S
N635        N636   1.323       .  A
N635        C639   1.345       .  A
N636        C637   1.346       .  A
C637        C638   1.381       .  A
C637        H640   1.082       .  S
C638        C639   1.378       .  A
C638        C879   1.437       .  S
C639        H641   1.082       .  S
N642        N643   1.324       .  A
N642        C646   1.346       .  A
N643        C644   1.345       .  A
C644        C645   1.379       .  A
C644        H647   1.082       .  S
C645        C646   1.380       .  A
C645        C882   1.438       .  S
C646        H648   1.082       .  S
N649        N650   1.323       .  A
N649        C653   1.347       .  A
N649       Cu657   2.074       .  S
N650        C651   1.344       .  A
N650       Cu656   2.068       .  S
C651        C652   1.378       .  A
C651        H654   1.082       .  S
C652        C653   1.380       .  A
C652        C944   1.435       .  S
C653        H655   1.082       .  S
Cu656       N659   2.068       .  S
Cu657       N667   2.074       .  S
Cu658       N660   2.079       .  S
Cu658       N666   2.080       .  S
N659        N660   1.323       .  A
N659        C663   1.345       .  A
N660        C661   1.346       .  A
C661        C662   1.381       .  A
C661        H664   1.082       .  S
C662        C663   1.378       .  A
C662        C886   1.437   1_455  S
C663        H665   1.082       .  S
N666        N667   1.324       .  A
N666        C670   1.346       .  A
N667        C668   1.345       .  A
C668        C669   1.379       .  A
C668        H671   1.082       .  S
C669        C670   1.380       .  A
C669        C881   1.438       .  S
C670        H672   1.082       .  S
N673        N674   1.323       .  A
N673        C677   1.347       .  A
N673       Cu681   2.074       .  S
N674        C675   1.344       .  A
N674       Cu680   2.068       .  S
C675        C676   1.378       .  A
C675        H678   1.082       .  S
C676        C677   1.380       .  A
C676        C964   1.436       .  S
C677        H679   1.082       .  S
Cu680       N683   2.068       .  S
Cu681       N691   2.075       .  S
Cu682       N684   2.079       .  S
Cu682       N690   2.080       .  S
N683        N684   1.323       .  A
N683        C687   1.345       .  A
N684        C685   1.346       .  A
C685        C686   1.381       .  A
C685        H688   1.082       .  S
C686        C687   1.379       .  A
C686        C875   1.437       .  S
C687        H689   1.082       .  S
N690        N691   1.324       .  A
N690        C694   1.347       .  A
N691        C692   1.345       .  A
C692        C693   1.379       .  A
C692        H695   1.082       .  S
C693        C694   1.381       .  A
C693        C877   1.438       .  S
C694        H696   1.082       .  S
N697        N698   1.323       .  A
N697        C701   1.346       .  A
N697       Cu705   2.074       .  S
N698        C699   1.343       .  A
N698       Cu704   2.067       .  S
C699        C700   1.378       .  A
C699        H702   1.082       .  S
C700        C701   1.380       .  A
C700        C968   1.435       .  S
C701        H703   1.082       .  S
Cu704       N707   2.067       .  S
Cu705       N715   2.074       .  S
Cu706       N708   2.079       .  S
Cu706       N714   2.080       .  S
N707        N708   1.323       .  A
N707        C711   1.345       .  A
N708        C709   1.346       .  A
C709        C710   1.381       .  A
C709        H712   1.082       .  S
C710        C711   1.378       .  A
C710        C873   1.437       .  S
C711        H713   1.082       .  S
N714        N715   1.324       .  A
N714        C718   1.347       .  A
N715        C716   1.345       .  A
C716        C717   1.379       .  A
C716        H719   1.082       .  S
C717        C718   1.381       .  A
C717        C878   1.438       .  S
C718        H720   1.082       .  S
N721        N722   1.323       .  A
N721        C725   1.347       .  A
N721       Cu729   2.080       .  S
N722        C723   1.345       .  A
N722       Cu728   2.070       .  S
C723        C724   1.378       .  A
C723        H726   1.082       .  S
C724        C725   1.381       .  A
C724        C880   1.437       .  S
C725        H727   1.082       .  S
Cu728       N731   2.070       .  S
Cu729       N739   2.080       .  S
Cu730       N732   2.072       .  S
Cu730       N738   2.073       .  S
N731        N732   1.322       .  A
N731        C735   1.344       .  A
N732        C733   1.346       .  A
C733        C734   1.380       .  A
C733        H736   1.082       .  S
C734        C735   1.379       .  A
C734        C924   1.436       .  S
C735        H737   1.082       .  S
N738        N739   1.324       .  A
N738        C742   1.345       .  A
N739        C740   1.347       .  A
C740        C741   1.381       .  A
C740        H743   1.082       .  S
C741        C742   1.378       .  A
C741        C871   1.438       .  S
C742        H744   1.082       .  S
N745        N746   1.323       .  A
N745        C749   1.347       .  A
N745       Cu753   2.079       .  S
N746        C747   1.345       .  A
N746       Cu752   2.070       .  S
C747        C748   1.378       .  A
C747        H750   1.082       .  S
C748        C749   1.381       .  A
C748        C874   1.437       .  S
C749        H751   1.082       .  S
Cu752       N755   2.070       .  S
Cu753       N763   2.079       .  S
Cu754       N756   2.072       .  S
Cu754       N762   2.072       .  S
N755        N756   1.322       .  A
N755        C759   1.345       .  A
N756        C757   1.346       .  A
C757        C758   1.380       .  A
C757        H760   1.082       .  S
C758        C759   1.379       .  A
C758        C917   1.437       .  S
C759        H761   1.082       .  S
N762        N763   1.324       .  A
N762        C766   1.345       .  A
N763        C764   1.347       .  A
C764        C765   1.381       .  A
C764        H767   1.082       .  S
C765        C766   1.378       .  A
C765        C872   1.438       .  S
C766        H768   1.082       .  S
N769        N770   1.323   1_565  A
N769        C773   1.346       .  A
N769       Cu777   2.073       .  S
N770        C771   1.343       .  A
N770       Cu776   2.067       .  S
C771        C772   1.378   1_545  A
C771        H774   1.082       .  S
C772        C773   1.380       .  A
C772        C930   1.435       .  S
C773        H775   1.082       .  S
Cu776       N779   2.068       .  S
Cu777       N787   2.074       .  S
Cu778       N780   2.079       .  S
Cu778       N786   2.080       .  S
N779        N780   1.323       .  A
N779        C783   1.345       .  A
N780        C781   1.346       .  A
C781        C782   1.381       .  A
C781        H784   1.082       .  S
C782        C783   1.378       .  A
C782        C884   1.437       .  S
C783        H785   1.082       .  S
N786        N787   1.324   1_545  A
N786        C790   1.347       .  A
N787        C788   1.345       .  A
C788        C789   1.379       .  A
C788        H791   1.082       .  S
C789        C790   1.381   1_565  A
C789        C869   1.438   1_554  S
C790        H792   1.082   1_554  S
N793        N794   1.323       .  A
N793        C797   1.347       .  A
N793       Cu801   2.074       .  S
N794        C795   1.343       .  A
N794       Cu800   2.068       .  S
C795        C796   1.378       .  A
C795        H798   1.082       .  S
C796        C797   1.380       .  A
C796        C925   1.435       .  S
C797        H799   1.082       .  S
Cu800       N803   2.068       .  S
Cu801       N811   2.074       .  S
Cu802       N804   2.079       .  S
Cu802       N810   2.080       .  S
N803        N804   1.323       .  A
N803        C807   1.345       .  A
N804        C805   1.346       .  A
C805        C806   1.381       .  A
C805        H808   1.082       .  S
C806        C807   1.378       .  A
C806        C867   1.437       .  S
C807        H809   1.082       .  S
N810        N811   1.324       .  A
N810        C814   1.346       .  A
N811        C812   1.345       .  A
C812        C813   1.379       .  A
C812        H815   1.082       .  S
C813        C814   1.380       .  A
C813        C870   1.438       .  S
C814        H816   1.082       .  S
N817        N818   1.322       .  A
N817        C821   1.346   1_556  A
N817       Cu825   2.072       .  S
N818        C819   1.345   1_556  A
N818       Cu824   2.071       .  S
C819        C820   1.379       .  A
C819        H822   1.082       .  S
C820        C821   1.380       .  A
C820        C903   1.437       .  S
C821        H823   1.082       .  S
Cu824       N827   2.072       .  S
Cu825       N835   2.072       .  S
Cu826       N828   2.078       .  S
Cu826       N834   2.078       .  S
N827        N828   1.323       .  A
N827        C831   1.345       .  A
N828        C829   1.346       .  A
C829        C830   1.381       .  A
C829        H832   1.082       .  S
C830        C831   1.378       .  A
C830        C868   1.437       .  S
C831        H833   1.082       .  S
N834        N835   1.324       .  A
N834        C838   1.346       .  A
N835        C836   1.345       .  A
C836        C837   1.378       .  A
C836        H839   1.082       .  S
C837        C838   1.380       .  A
C837        C865   1.437       .  S
C838        H840   1.082       .  S
N841        N842   1.322       .  A
N841        C845   1.346       .  A
N841       Cu849   2.072       .  S
N842        C843   1.345       .  A
N842       Cu848   2.072       .  S
C843        C844   1.379       .  A
C843        H846   1.082       .  S
C844        C845   1.380       .  A
C844        C910   1.437       .  S
C845        H847   1.082       .  S
Cu848       N851   2.072       .  S
Cu849       N859   2.072       .  S
Cu850       N852   2.078       .  S
Cu850       N858   2.079       .  S
N851        N852   1.323       .  A
N851        C855   1.345       .  A
N852        C853   1.347       .  A
C853        C854   1.381       .  A
C853        H856   1.082       .  S
C854        C855   1.378       .  A
C854        C876   1.437   1_455  S
C855        H857   1.082       .  S
N858        N859   1.324       .  A
N858        C862   1.346       .  A
N859        C860   1.345       .  A
C860        C861   1.378       .  A
C860        H863   1.082       .  S
C861        C862   1.381       .  A
C861        C866   1.437       .  S
C862        H864   1.082       .  S
C865        C866   1.206       .  T
C867        C868   1.206       .  T
C869        C870   1.207       .  T
C871        C872   1.206       .  T
C873        C874   1.206       .  T
C875        C876   1.206       .  T
C877        C878   1.207       .  T
C879        C880   1.206       .  T
C881        C882   1.206       .  T
C883        C884   1.206       .  T
C885        C886   1.206       .  T
C887        C888   1.206       .  T
C889        C890   1.206       .  T
C891        C892   1.205       .  T
C893        C894   1.206       .  T
C895        C896   1.206       .  T
C897        C898   1.207       .  T
C899        C900   1.206       .  T
C901        C902   1.206       .  T
C903        C904   1.206       .  T
C905        C906   1.206       .  T
C907        C908   1.206       .  T
C909        C910   1.206       .  T
C911        C912   1.206       .  T
C913        C914   1.207       .  T
C915        C916   1.206       .  T
C917        C918   1.206       .  T
C919        C920   1.206       .  T
C921        C922   1.206       .  T
C923        C924   1.206       .  T
C925        C926   1.205       .  T
C927        C928   1.208       .  T
C929        C930   1.205       .  T
C931        C932   1.205       .  T
C933        C934   1.205       .  T
C935        C936   1.209       .  T
C937        C938   1.208       .  T
C939        C940   1.205       .  T
C941        C942   1.209       .  T
C943        C944   1.205       .  T
C945        C946   1.208       .  T
C947        C948   1.209       .  T
C949        C950   1.205       .  T
C951        C952   1.208       .  T
C953        C954   1.205       .  T
C955        C956   1.205       .  T
C957        C958   1.209       .  T
C959        C960   1.205       .  T
C961        C962   1.207       .  T
C963        C964   1.205       .  T
C965        C966   1.209       .  T
C967        C968   1.205       .  T
C969        C970   1.209       .  T
C971        C972   1.208       .  T
