geometry optimzed in LAMMPS
_audit_creation_date              2020-11-30 
_audit_creation_method            'lammps2cif' 
_symmetry_space_group_name_H-M    'P1' 
_symmetry_Int_Tables_number       1 
_symmetry_cell_setting            triclinic 
loop_ 
_symmetry_equiv_pos_as_xyz 
  x,y,z 
_cell_length_a                    41.64118338 
_cell_length_b                    41.705620428298765 
_cell_length_c                    83.411564882583 
_cell_angle_alpha                 89.9323997251972 
_cell_angle_beta                  89.96285856948585 
_cell_angle_gamma                 119.90320707414118 
loop_ 
_atom_site_label 
_atom_site_type_symbol 
_atom_site_fract_x 
_atom_site_fract_y 
_atom_site_fract_z 
_atom_site_charge 
O1          O  0.10310430  0.31544950  0.32339143    -0.87500
C2          C  0.19507221  0.37658185  0.29526779     0.88500
Mg3        Mg  0.09412360  0.33377717  0.34611822     1.58100
O4          O  0.19524380  0.30279191  0.31580371    -0.87300
O5          O  0.10750063  0.26889781  0.31385606    -0.74600
C6          C  0.25387141  0.39637946  0.38421502     0.93500
O7          O  0.15102490  0.40423349  0.32009122    -0.74400
O8          O  0.22568012  0.40058776  0.38379760    -0.81900
Mg9        Mg  0.11894638  0.35415704  0.30366355     1.58000
C10         C  0.29366667  0.32507150  0.33967616     0.93500
O11         O  0.08635252  0.31002174  0.28488743    -0.80200
H12         H  0.17319430  0.24869728  0.32017465    -0.05500
C13         C  0.25209322  0.40394183  0.33717548     0.88400
O14         O  0.11692556  0.30103099  0.35948012    -0.74700
O15         O  0.16681277  0.34844339  0.29974683    -0.87500
O16         O  0.28199795  0.32535110  0.32555120    -0.80300
C17         C  0.23708908  0.31643814  0.27768148     0.93600
C18         C  0.08995001  0.28881012  0.27498269     0.93400
Mg19       Mg  0.22646519  0.33269084  0.35564717     1.58000
O20         O  0.26009637  0.37876647  0.37338880    -0.80200
O21         O  0.19494974  0.28138777  0.33974833    -0.74400
O22         O  0.20310058  0.30797518  0.27778870    -0.80300
O23         O  0.06828140  0.36025334  0.30750764    -0.82000
O24         O  0.13981684  0.37321165  0.38212973    -0.80300
C25         C  0.18755575  0.27654291  0.32489552     0.87900
O26         O  0.17720067  0.33601858  0.35948489    -0.87400
O27         O  0.24049418  0.37041069  0.33583062    -0.87500
O28         O  0.23571595  0.41627407  0.34595314    -0.74600
Mg29       Mg  0.15700051  0.29273799  0.29657202     1.58000
O30         O  0.25800872  0.33047394  0.28980665    -0.82000
H31         H  0.06644299  0.26295238  0.32880009    -0.05700
O32         O  0.14850164  0.38201701  0.34410288    -0.87200
H33         H  0.17223400  0.43629358  0.33985283    -0.05500
H34         H  0.15156423  0.28679273  0.37043367    -0.05700
C35         C  0.15740548  0.40857355  0.33503062     0.87800
C36         C  0.09101642  0.28182091  0.32217021     0.88400
C37         C  0.14893622  0.30735782  0.36355720     0.88500
H38         H  0.27627346  0.42320563  0.33043724    -0.05700
O39         O  0.22704359  0.38314563  0.29948475    -0.74700
Mg40       Mg  0.18601460  0.39082335  0.36332753     1.58000
H41         H  0.19245870  0.39659599  0.28796509    -0.05700
C42         C  0.05288863  0.36395186  0.32000963     0.93500
O43         O  0.08503536  0.35300343  0.37040985    -0.81900
C44         C  0.10603210  0.36524724  0.38265213     0.93500
O45         O  0.11591758  0.28119819  0.27624036    -0.81900
Mg46       Mg  0.24966716  0.35115576  0.31343392     1.58200
O47         O  0.06304612  0.36054767  0.33406362    -0.80300
O48         O  0.27835248  0.32958181  0.35196530    -0.82000
C49         C  0.33148214  0.13573181  0.20363264    -0.10100
C50         C  0.32400734  0.16116469  0.21127553    -0.03900
C51         C  0.33338740  0.19525284  0.20433908    -0.10000
C52         C  0.35174744  0.20495094  0.18935355     0.10900
C53         C  0.35902019  0.17929217  0.18125419    -0.01800
C54         C  0.34883440  0.14451437  0.18836854     0.10700
C55         C  0.35678031  0.11985443  0.18012455    -0.11800
C56         C  0.37275596  0.12833586  0.16489574    -0.11800
C57         C  0.38290150  0.16247410  0.15762947     0.10700
C58         C  0.37660395  0.18850522  0.16600674    -0.01800
C59         C  0.36359991  0.23983868  0.18240079    -0.12000
C60         C  0.38103146  0.24894330  0.16751640    -0.12000
C61         C  0.38729376  0.22352167  0.15903469     0.10900
C62         C  0.40430809  0.23224154  0.14378859    -0.10000
C63         C  0.40994115  0.20624630  0.13567253    -0.03900
C64         C  0.39883255  0.17135534  0.14212615    -0.10100
H65         H  0.35052130  0.09359085  0.18531220     0.08200
H66         H  0.37743074  0.10799857  0.15892408     0.08200
H67         H  0.35975942  0.26060789  0.18846069     0.08300
H68         H  0.38961067  0.27616357  0.16270206     0.08300
H69         H  0.30990081  0.15395304  0.22277376     0.04800
H70         H  0.42211563  0.21285970  0.12376317     0.04800
C71         C  0.83325212  0.10796281  0.19137722    -0.10100
C72         C  0.86641351  0.13303338  0.19881710    -0.03900
C73         C  0.88966152  0.16809583  0.19251423    -0.10000
C74         C  0.88024805  0.17856065  0.17791481     0.10900
C75         C  0.84674328  0.15340018  0.17001988    -0.01800
C76         C  0.82277322  0.11816558  0.17692593     0.10700
C77         C  0.78916647  0.09437988  0.16924724    -0.11800
C78         C  0.77918340  0.10486442  0.15503766    -0.11800
C79         C  0.80311698  0.13889683  0.14755878     0.10700
C80         C  0.83705120  0.16368236  0.15529648    -0.01800
C81         C  0.90296266  0.21366236  0.17120591    -0.12000
C82         C  0.89365160  0.22363747  0.15675103    -0.12000
C83         C  0.86123434  0.19890557  0.14845057     0.10900
C84         C  0.85203044  0.20877671  0.13362680    -0.10000
C85         C  0.81868385  0.18400638  0.12612111    -0.03900
C86         C  0.79392063  0.14932814  0.13275560    -0.10100
H87         H  0.77014489  0.06748926  0.17424427     0.08200
H88         H  0.75241120  0.08588274  0.14999320     0.08200
H89         H  0.92822961  0.23374158  0.17708498     0.08300
H90         H  0.91206578  0.25116517  0.15220975     0.08300
H91         H  0.87390191  0.12542394  0.21008469     0.04800
H92         H  0.81222025  0.19165621  0.11463693     0.04800
O93         O  0.23536384  0.87836734  0.33894563    -0.87500
C94         C  0.15084424  0.85856376  0.36896679     0.88500
Mg95       Mg  0.24163329  0.90294660  0.31573876     1.58100
O96         O  0.14608754  0.78066494  0.35008131    -0.87300
O97         O  0.23318888  0.83022653  0.35037029    -0.74600
C98         C  0.07709232  0.80577978  0.28102360     0.93500
O99         O  0.19350997  0.92443270  0.34227076    -0.74400
O100        O  0.10400847  0.83905753  0.28052718    -0.81900
Mg101      Mg  0.22729485  0.90697602  0.35841945     1.58000
C102        C  0.04749826  0.70293689  0.32958689     0.93500
O103        O  0.26204492  0.89481291  0.37620228    -0.80200
H104        H  0.16850120  0.74891703  0.34562854    -0.05500
C105        C  0.08639857  0.82200490  0.32771479     0.88400
O106        O  0.21720265  0.84669556  0.30346721    -0.74700
O107        O  0.17816512  0.85630300  0.36489815    -0.87500
O108        O  0.06125178  0.71927092  0.34276615    -0.80300
C109        C  0.10630652  0.75630773  0.38911578     0.93600
C110        C  0.25758603  0.87129392  0.38702214     0.93400
Mg111      Mg  0.10996613  0.77369882  0.31009162     1.58000
O112        O  0.07475274  0.78333121  0.29193465    -0.80200
O113        O  0.14411620  0.75744964  0.32630904    -0.74400
O114        O  0.14069096  0.78084361  0.38881811    -0.80300
O115        O  0.28016780  0.96056523  0.35179969    -0.82000
O116        O  0.19315840  0.89903504  0.27994285    -0.80300
C117        C  0.15312175  0.76152766  0.34102003     0.87900
O118        O  0.15742233  0.82478989  0.30373842    -0.87400
O119        O  0.09974351  0.80164550  0.32952899    -0.87500
O120        O  0.10068248  0.84917889  0.31808600    -0.74600
Mg121      Mg  0.18549308  0.80890615  0.36866992     1.58000
O122        O  0.08565209  0.75065314  0.37702155    -0.82000
H123        H  0.27146022  0.86159534  0.33360634    -0.05700
O124        O  0.18848888  0.89966911  0.31853554    -0.87200
H125        H  0.16755519  0.93257378  0.32340094    -0.05500
H126        H  0.18042481  0.79864582  0.29272113    -0.05700
C127        C  0.18276577  0.91954294  0.32774236     0.87800
C128        C  0.24792258  0.85731813  0.34069620     0.88400
C129        C  0.18462412  0.82256727  0.29945576     0.88500
H130        H  0.06261356  0.81712959  0.33477360    -0.05700
O131        O  0.11825920  0.83397314  0.36511702    -0.74700
Mg132      Mg  0.14828661  0.87101145  0.29982854     1.58000
H133        H  0.15487388  0.88265135  0.37551447    -0.05700
C134        C  0.29054405  0.97716352  0.33836306     0.93500
O135        O  0.24869985  0.92834462  0.29147740    -0.81900
C136        C  0.22789014  0.92226914  0.27941215     0.93500
O137        O  0.22863490  0.83947443  0.38766326    -0.81900
Mg138      Mg  0.09320450  0.77736639  0.35281769     1.58200
O139        O  0.27366487  0.96195020  0.32544288    -0.80300
O140        O  0.05935653  0.71909530  0.31619041    -0.82000
O141        O  0.64479257  0.77151924  0.34074482    -0.87500
C142        C  0.71023942  0.85677227  0.37070832     0.88500
Mg143      Mg  0.66181487  0.76484172  0.31727103     1.58100
O144        O  0.63833875  0.86272528  0.35132931    -0.87300
O145        O  0.59932399  0.77501182  0.35201539    -0.74600
C146        C  0.73372300  0.92749760  0.28185597     0.93500
O147        O  0.73348472  0.81315609  0.34384583    -0.74400
O148        O  0.73732126  0.89902325  0.28257555    -0.81900
Mg149      Mg  0.68299698  0.78071686  0.36016308     1.58000
C150        C  0.66171878  0.96317784  0.33066650     0.93500
O151        O  0.63826002  0.74722630  0.37898361    -0.80200
H152        H  0.58467188  0.84286056  0.34650406    -0.05500
C153        C  0.74039713  0.92029324  0.32973424     0.88400
O154        O  0.63174417  0.79174153  0.30518403    -0.74700
O155        O  0.68100245  0.82974291  0.36622566    -0.87500
O156        O  0.66191188  0.94808475  0.34390991    -0.80300
C157        C  0.65250517  0.90061503  0.39071630     0.93600
C158        C  0.61913816  0.75186102  0.38974223     0.93400
Mg159      Mg  0.67023293  0.90067806  0.31140683     1.58000
O160        O  0.71657789  0.93470590  0.29272121    -0.80200
O161        O  0.61892815  0.86795434  0.32758253    -0.74400
O162        O  0.64420284  0.86674970  0.39015565    -0.80300
O163        O  0.68551929  0.72868620  0.35382302    -0.82000
O164        O  0.70680254  0.81306054  0.28202730    -0.80300
C165        C  0.61289435  0.85745452  0.34213671     0.87900
O166        O  0.67095000  0.85114914  0.30560874    -0.87400
O167        O  0.70702156  0.90944671  0.33125122    -0.87500
O168        O  0.75195068  0.90441013  0.32026696    -0.74600
Mg169      Mg  0.62637055  0.82259709  0.37008787     1.58000
O170        O  0.66661920  0.92200587  0.37870628    -0.82000
H171        H  0.59176763  0.73600096  0.33560075    -0.05700
O172        O  0.71237004  0.81688029  0.32031659    -0.87200
H173        H  0.76629144  0.83661688  0.32440173    -0.05500
H174        H  0.62170801  0.82988339  0.29480860    -0.05700
C175        C  0.73840891  0.82239704  0.32916328     0.87800
C176        C  0.61129441  0.75954782  0.34255965     0.88400
C177        C  0.64103135  0.82469633  0.30138340     0.88500
H178        H  0.76015671  0.94331774  0.33687704    -0.05700
O179        O  0.71832409  0.88956220  0.36713698    -0.74700
Mg180      Mg  0.72481666  0.85697579  0.30194686     1.58000
H181        H  0.72987081  0.85234580  0.37744493    -0.05700
C182        C  0.68940569  0.71722647  0.34019669     0.93500
O183        O  0.67963144  0.75665139  0.29258251    -0.81900
C184        C  0.69498115  0.77847331  0.28081472     0.93500
O185        O  0.61374875  0.77936966  0.38948909    -0.81900
Mg186      Mg  0.68764447  0.91545649  0.35448862     1.58200
O187        O  0.68634498  0.73141516  0.32722069    -0.80300
O188        O  0.66846311  0.95265649  0.31740650    -0.82000
C189        C  0.87498999  0.70552429  0.19769258    -0.10100
C190        C  0.84855426  0.71268699  0.20450792    -0.03900
C191        C  0.81441088  0.70153471  0.19725328    -0.10000
C192        C  0.80690001  0.68401680  0.18210161     0.10900
C193        C  0.83371558  0.67700772  0.17475924    -0.01800
C194        C  0.86772916  0.68732396  0.18267416     0.10700
C195        C  0.89281196  0.67821549  0.17558210    -0.11800
C196        C  0.88473302  0.65931270  0.16096115    -0.11800
C197        C  0.85157141  0.64941238  0.15276563     0.10700
C198        C  0.82593252  0.65858642  0.15970832    -0.01800
C199        C  0.77293349  0.67224445  0.17435387    -0.12000
C200        C  0.76585244  0.65535551  0.15941205    -0.12000
C201        C  0.79211083  0.64876319  0.15177490     0.10900
C202        C  0.78489407  0.63156347  0.13659350    -0.10000
C203        C  0.80987286  0.62196138  0.13010898    -0.03900
C204        C  0.84266719  0.62987744  0.13799371    -0.10100
H205        H  0.91873258  0.68528351  0.18140852     0.08200
H206        H  0.90471285  0.65250877  0.15611211     0.08200
H207        H  0.75138208  0.67590960  0.17977213     0.08300
H208        H  0.73913873  0.64680241  0.15404116     0.08300
H209        H  0.85430686  0.72640220  0.21606664     0.04800
H210        H  0.80382841  0.60829355  0.11853874     0.04800
O211        O  0.45673558  0.02501734  0.00373602    -0.87500
C212        C  0.48216052  0.96545789  0.03481254     0.88500
Mg213      Mg  0.43081330  0.00366414  0.98080358     1.58100
O214        O  0.55741211  0.03685354  0.01371928    -0.87300
O215        O  0.50558040  0.07259722  0.01386334    -0.74600
C216        C  0.52672268  0.93490272  0.94663287     0.93500
O217        O  0.41337775  0.93752073  0.00900435    -0.74400
O218        O  0.49398445  0.92991979  0.94687780    -0.81900
Mg219      Mg  0.43074581  0.98975972  0.02418852     1.58000
C220        C  0.63377563  0.01132651  0.99336436     0.93500
O221        O  0.44212036  0.03660597  0.04201838    -0.80200
H222        H  0.58911452  0.09014746  0.00776037    -0.05500
C223        C  0.51540854  0.93311262  0.99402447     0.88400
O224        O  0.48659178  0.03468686  0.96774897    -0.74700
O225        O  0.48310223  0.99395836  0.03004582    -0.87500
O226        O  0.62038943  0.01478853  0.00652545    -0.80300
C227        C  0.58560498  0.02667598  0.05296342     0.93600
C228        C  0.46649350  0.05693517  0.05232451     0.93400
Mg229      Mg  0.56187179  0.00169701  0.97448316     1.58000
O230        O  0.55054675  0.95421325  0.95725048    -0.80200
O231        O  0.57986987  0.05438933  0.98949959    -0.74400
O232        O  0.56081018  0.03624972  0.05254097    -0.80300
O233        O  0.37550352  0.98621456  0.01800693    -0.82000
O234        O  0.43518810  0.95680967  0.94635836    -0.80300
C235        C  0.57615907  0.06157352  0.00396707     0.87900
O236        O  0.51021366  0.99823963  0.96877063    -0.87400
O237        O  0.53578612  0.96692509  0.99493229    -0.87500
O238        O  0.48740966  0.91898073  0.98486155    -0.74600
Mg239      Mg  0.52987396  0.04960654  0.03241086     1.58000
O240        O  0.59103081  0.01088761  0.04110165    -0.82000
H241        H  0.47212946  0.07694107  0.99735748    -0.05700
O242        O  0.43603799  0.95534615  0.98483447    -0.87200
H243        H  0.40442111  0.90199904  0.99069284    -0.05500
H244        H  0.53488148  0.04635162  0.95693033    -0.05700
C245        C  0.41723317  0.93051604  0.99453157     0.87800
C246        C  0.47750535  0.05878209  0.00471763     0.88400
C247        C  0.51142832  0.02687198  0.96400140     0.88500
H248        H  0.52106455  0.91523997  0.00144260    -0.05700
O249        O  0.50704711  0.95777939  0.03096079    -0.74700
Mg250      Mg  0.46394078  0.94268259  0.96633983     1.58000
H251        H  0.45894568  0.94600772  0.04200583    -0.05700
C252        C  0.35814305  0.97932628  0.00474113     0.93500
O253        O  0.40338406  0.98182116  0.95654190    -0.81900
C254        C  0.41081267  0.96658642  0.94501263     0.93500
O255        O  0.49963678  0.06291543  0.05173614    -0.81900
Mg256      Mg  0.56247094  0.98849792  0.01753628     1.58200
O257        O  0.37276946  0.97732241  0.99164498    -0.80300
O258        O  0.61575079  0.00386554  0.98032804    -0.82000
O259        O  0.54018226  0.56886382  0.99546457    -0.87500
C260        C  0.50936809  0.47830523  0.96719418     0.88500
Mg261      Mg  0.56815795  0.57689402  0.01778383     1.58100
O262        O  0.43678907  0.47968515  0.98833725    -0.87300
O263        O  0.49045906  0.56704063  0.98592330    -0.74600
C264        C  0.47319371  0.41826077  0.05635825     0.93500
O265        O  0.58209266  0.52184130  0.99129084    -0.74400
O266        O  0.50577774  0.44574684  0.05512826    -0.81900
Mg267      Mg  0.56330437  0.55449105  0.97551806     1.58000
C268        C  0.35940377  0.38234615  0.01211548     0.93500
O269        O  0.55141210  0.58781737  0.95745047    -0.80200
H270        H  0.40621766  0.50310591  0.99349535    -0.05500
C271        C  0.47960742  0.42008545  0.00891408     0.88400
O272        O  0.51360685  0.55476879  0.03172089    -0.74700
O273        O  0.50994944  0.50678502  0.97168581    -0.87500
O274        O  0.37228129  0.39461446  0.99815504    -0.80300
C275        C  0.40777225  0.43814239  0.94986382     0.93600
C276        C  0.52727138  0.58370720  0.94708385     0.93400
Mg277      Mg  0.43543509  0.44637228  0.02825743     1.58000
O278        O  0.44803930  0.41209509  0.04613225    -0.80200
O279        O  0.41663813  0.47944086  0.01259100    -0.74400
O280        O  0.43399246  0.47167218  0.95011733    -0.80300
O281        O  0.61933512  0.60563710  0.97936397    -0.82000
O282        O  0.56472226  0.53129233  0.05366171    -0.80300
C283        C  0.41912394  0.48775998  0.99781512     0.87900
O284        O  0.48850240  0.49461987  0.03191909    -0.87400
O285        O  0.45810380  0.43236978  0.00797907    -0.87500
O286        O  0.50884026  0.43587713  0.01736031    -0.74600
Mg287      Mg  0.46447382  0.51743439  0.96878787     1.58000
O288        O  0.39958388  0.41732271  0.96212883    -0.82000
H289        H  0.52634468  0.60703336  0.00099684    -0.05700
O290        O  0.56192212  0.52269512  0.01537552    -0.87200
H291        H  0.59285815  0.49942718  0.01072531    -0.05500
H292        H  0.46572255  0.52045808  0.04337055    -0.05700
C293        C  0.57981259  0.51441693  0.00613763     0.87800
C294        C  0.51973046  0.58230110  0.99431663     0.88400
C295        C  0.48839320  0.52292884  0.03613644     0.88500
H296        H  0.47386619  0.39581418  0.00206269    -0.05700
O297        O  0.48369556  0.44654138  0.97145713    -0.74700
Mg298      Mg  0.53454436  0.48531629  0.03475445     1.58000
H299        H  0.53172538  0.48051340  0.95981171    -0.05700
C300        C  0.63847003  0.61944312  0.99197240     0.93500
O301        O  0.59761100  0.58531553  0.04119606    -0.81900
C302        C  0.59048469  0.56506317  0.05355251     0.93500
O303        O  0.49380519  0.55759912  0.94809622    -0.81900
Mg304      Mg  0.42946521  0.42489289  0.98569038     1.58200
O305        O  0.62537882  0.60713217  0.00585362    -0.80300
O306        O  0.37914902  0.39565066  0.02459805    -0.82000
O307        O  0.02520668  0.45830388  0.99362723    -0.87500
C308        C  0.96467451  0.48868818  0.96541612     0.88500
Mg309      Mg  0.00770254  0.43272634  0.01682121     1.58100
O310        O  0.04152936  0.56179648  0.98463094    -0.87300
O311        O  0.07267780  0.50571571  0.98246626    -0.74600
C312        C  0.95111515  0.53554889  0.05541795     0.93500
O313        O  0.93700327  0.42038069  0.99169466    -0.74400
O314        O  0.94548987  0.50254922  0.05558863    -0.81900
Mg315      Mg  0.98532936  0.43414507  0.97445628     1.58000
C316        C  0.02395520  0.64194723  0.00837153     0.93500
O317        O  0.02783270  0.44169093  0.95519070    -0.80200
H318        H  0.09591434  0.59101975  0.98899781    -0.05500
C319        C  0.94162548  0.52303093  0.00831414     0.88400
O320        O  0.04303226  0.48822997  0.02957834    -0.74700
O321        O  0.99274467  0.48770240  0.96934279    -0.87500
O322        O  0.02233494  0.62851929  0.99444374    -0.80300
C323        C  0.02650513  0.58924210  0.94644097     0.93600
C324        C  0.04925145  0.46432382  0.94459378     0.93400
Mg325      Mg  0.01429449  0.56733033  0.02556123     1.58000
O326        O  0.97009238  0.55826867  0.04435647    -0.80200
O327        O  0.06368214  0.58283238  0.00857565    -0.74400
O328        O  0.03351868  0.56266066  0.94626391    -0.80300
O329        O  0.97765514  0.37727441  0.97932414    -0.82000
O330        O  0.96980676  0.43949417  0.05405148    -0.80300
C331        C  0.06810307  0.57925035  0.99372702     0.87900
O332        O  0.00892844  0.51446962  0.03054183    -0.87400
O333        O  0.97530544  0.54302854  0.00618149    -0.87500
O334        O  0.92875732  0.49552326  0.01782155    -0.74600
Mg335      Mg  0.04904675  0.53151294  0.96514134     1.58000
O336        O  0.01430580  0.59722000  0.95893670    -0.82000
H337        H  0.07738309  0.47111206  0.99817535    -0.05700
O338        O  0.96007894  0.44025377  0.01564277    -0.87200
H339        H  0.90557019  0.41256527  0.01148885    -0.05500
H340        H  0.05902908  0.53720063  0.04065880    -0.05700
C341        C  0.93317732  0.42362765  0.00662097     0.87800
C342        C  0.05898747  0.47764801  0.99162344     0.88400
C343        C  0.03758665  0.51419600  0.03405553     0.88500
H344        H  0.92263872  0.52871440  0.00174937    -0.05700
O345        O  0.95941043  0.51479231  0.96984714    -0.74700
Mg346      Mg  0.95334968  0.47017622  0.03516534     1.58000
H347        H  0.94353730  0.46616539  0.95848517    -0.05700
C348        C  0.97386155  0.35940535  0.99221637     0.93500
O349        O  0.98939178  0.40570620  0.04114001    -0.81900
C350        C  0.97752758  0.41340587  0.05379516     0.93500
O351        O  0.05805930  0.49842652  0.94482759    -0.81900
Mg352      Mg  0.99404960  0.56975105  0.98309270     1.58200
O353        O  0.97813825  0.37451572  0.00590137    -0.80300
O354        O  0.01959609  0.62302744  0.02094894    -0.82000
O355        O  0.30108088  0.09330621  0.66927474    -0.87500
C356        C  0.36594629  0.17876886  0.69913196     0.88500
Mg357      Mg  0.31707383  0.08748078  0.64570249     1.58100
O358        O  0.29160233  0.18289144  0.68107106    -0.87300
O359        O  0.25515451  0.09552608  0.68078086    -0.74600
C360        C  0.38165809  0.25055257  0.61146665     0.93500
O361        O  0.39013907  0.13783941  0.67138893    -0.74400
O362        O  0.38584313  0.22239982  0.61128283    -0.81900
Mg363      Mg  0.34077498  0.10393594  0.68806361     1.58000
C364        C  0.31090483  0.28222291  0.66168105     0.93500
O365        O  0.29742971  0.06918864  0.70680003    -0.80200
H366        H  0.23737810  0.16202851  0.67728139    -0.05500
C367        C  0.39175669  0.24250793  0.65859582     0.88400
O368        O  0.28450987  0.11277485  0.63449549    -0.74700
O369        O  0.33694582  0.15161746  0.69456254    -0.87500
O370        O  0.31255511  0.26718974  0.67469896    -0.80300
C371        C  0.30800089  0.21941983  0.72084591     0.93600
C372        C  0.27777859  0.07259492  0.71763515     0.93400
Mg373      Mg  0.31988653  0.22115112  0.64145823     1.58000
O374        O  0.36496680  0.25651205  0.62291871    -0.80200
O375        O  0.26962591  0.18730474  0.65785941    -0.74400
O376        O  0.29871253  0.18541479  0.71946075    -0.80300
O377        O  0.34489103  0.05318915  0.68137444    -0.82000
O378        O  0.35792658  0.13649696  0.61000948    -0.80300
C379        C  0.26514364  0.17707415  0.67243085     0.87900
O380        O  0.32194711  0.17252799  0.63501326    -0.87400
O381        O  0.35832358  0.23069968  0.66064863    -0.87500
O382        O  0.40334426  0.22749673  0.64865952    -0.74600
Mg383      Mg  0.28168602  0.14248560  0.69908388     1.58000
O384        O  0.32158512  0.24176096  0.70910032    -0.82000
H385        H  0.24822753  0.05692904  0.66427885    -0.05700
O386        O  0.36675927  0.14036814  0.64827108    -0.87200
H387        H  0.42121966  0.16198589  0.65157517    -0.05500
H388        H  0.27184946  0.14982718  0.62490584    -0.05700
C389        C  0.39373014  0.14693593  0.65670133     0.87800
C390        C  0.26751199  0.08057696  0.67125286     0.88400
C391        C  0.29225084  0.14546857  0.63101721     0.88500
H392        H  0.41158336  0.26566080  0.66565679    -0.05700
O393        O  0.37324092  0.21146354  0.69594740    -0.74700
Mg394      Mg  0.37622601  0.18027475  0.63020712     1.58000
H395        H  0.38610133  0.17454963  0.70554184    -0.05700
C396        C  0.34821945  0.04154220  0.66772162     0.93500
O397        O  0.33355297  0.08054559  0.62094105    -0.81900
C398        C  0.34711186  0.10205095  0.60898034     0.93500
O399        O  0.27110328  0.09921251  0.71774773    -0.81900
Mg400      Mg  0.34048628  0.23601642  0.68425103     1.58200
O401        O  0.34411216  0.05523220  0.65477980    -0.80300
O402        O  0.31686017  0.27215897  0.64814359    -0.82000
C403        C  0.21608826  0.36386010  0.86450469    -0.10100
C404        C  0.18957380  0.37000345  0.87195069    -0.03900
C405        C  0.15519424  0.35929471  0.86496695    -0.10000
C406        C  0.14654564  0.34095784  0.84989952     0.10900
C407        C  0.17316729  0.33422413  0.84216282    -0.01800
C408        C  0.20824613  0.34625501  0.84938009     0.10700
C409        C  0.23484224  0.34118069  0.84113235    -0.11800
C410        C  0.22684863  0.32334231  0.82636575    -0.11800
C411        C  0.19191569  0.30980156  0.81924404     0.10700
C412        C  0.16489673  0.31572956  0.82710336    -0.01800
C413        C  0.11215771  0.32887442  0.84242301    -0.12000
C414        C  0.10412392  0.31094192  0.82757148    -0.12000
C415        C  0.13005729  0.30413189  0.81972444     0.10900
C416        C  0.12256904  0.28665122  0.80454294    -0.10000
C417        C  0.14897340  0.28002350  0.79729893    -0.03900
C418        C  0.18360518  0.29161355  0.80420380    -0.10100
H419        H  0.26236866  0.35137494  0.84593524     0.08200
H420        H  0.24853357  0.32056032  0.82052798     0.08200
H421        H  0.09119151  0.33324295  0.84802270     0.08300
H422        H  0.07731940  0.30233675  0.82226584     0.08300
H423        H  0.19583561  0.38343797  0.88357680     0.04800
H424        H  0.14281927  0.26653460  0.78568311     0.04800
C425        C  0.20987372  0.84567718  0.86337366    -0.10100
C426        C  0.18505681  0.81189339  0.87053959    -0.03900
C427        C  0.15075446  0.78761258  0.86365266    -0.10000
C428        C  0.14074113  0.79691214  0.84887855     0.10900
C429        C  0.16580278  0.83075860  0.84125380    -0.01800
C430        C  0.20055047  0.85524105  0.84847994     0.10700
C431        C  0.22457713  0.88882220  0.84077465    -0.11800
C432        C  0.21526699  0.89778446  0.82606556    -0.11800
C433        C  0.18112810  0.87399197  0.81875487     0.10700
C434        C  0.15590448  0.84035699  0.82645116    -0.01800
C435        C  0.10654784  0.77323187  0.84148192    -0.12000
C436        C  0.09664482  0.78292758  0.82706090    -0.12000
C437        C  0.12090234  0.81626973  0.81931675     0.10900
C438        C  0.11126660  0.82653128  0.80466004    -0.10000
C439        C  0.13683839  0.85941179  0.79719224    -0.03900
C440        C  0.17149644  0.88276467  0.80385719    -0.10100
H441        H  0.25091152  0.90846711  0.84600494     0.08200
H442        H  0.23494427  0.92376555  0.82052415     0.08200
H443        H  0.08705011  0.74691043  0.84679469     0.08300
H444        H  0.06984057  0.76398227  0.82197986     0.08300
H445        H  0.19217639  0.80479699  0.88200981     0.04800
H446        H  0.12988670  0.86670443  0.78571907     0.04800
O447        O  0.90039329  0.20502096  0.67009780    -0.87500
C448        C  0.81838352  0.18315221  0.70236321     0.88500
Mg449      Mg  0.90398420  0.22950595  0.64680649     1.58100
O450        O  0.81284273  0.10603815  0.68243544    -0.87300
O451        O  0.90042571  0.15748410  0.68109744    -0.74600
C452        C  0.73629094  0.13273261  0.61579930     0.93500
O453        O  0.85622328  0.24863156  0.67515458    -0.74400
O454        O  0.76445301  0.16509426  0.61509558    -0.81900
Mg455      Mg  0.89231142  0.23272679  0.69032411     1.58000
C456        C  0.70972483  0.02719122  0.66411884     0.93500
O457        O  0.92953157  0.22350777  0.70796605    -0.80200
H458        H  0.83440239  0.07420121  0.67654891    -0.05500
C459        C  0.75051848  0.14761011  0.66239707     0.88400
O460        O  0.87805966  0.17299800  0.63436533    -0.74700
O461        O  0.84530577  0.18131347  0.69734257    -0.87500
O462        O  0.72649902  0.04325441  0.67694659    -0.80300
C463        C  0.77774898  0.08185014  0.72226585     0.93600
C464        C  0.92707260  0.20049835  0.71867855     0.93400
Mg465      Mg  0.77039250  0.09851713  0.64342973     1.58000
O466        O  0.73317217  0.10942121  0.62650228    -0.80200
O467        O  0.80652172  0.08213207  0.65843331    -0.74400
O468        O  0.81216295  0.10609653  0.72129835    -0.80300
O469        O  0.94233505  0.28748925  0.68332408    -0.82000
O470        O  0.85189092  0.22508511  0.61222892    -0.80300
C471        C  0.81832281  0.08676879  0.67278304     0.87900
O472        O  0.81820114  0.14986212  0.63634894    -0.87400
O473        O  0.76330919  0.12661374  0.66354469    -0.87500
O474        O  0.76409634  0.17469525  0.65268803    -0.74600
Mg475      Mg  0.85478314  0.13507332  0.70040735     1.58000
O476        O  0.75573238  0.07609937  0.71068063    -0.82000
H477        H  0.93656823  0.18906946  0.66370670    -0.05700
O478        O  0.85120167  0.22553117  0.65108638    -0.87200
H479        H  0.82916957  0.25699918  0.65683753    -0.05500
H480        H  0.84046384  0.12413627  0.62440376    -0.05700
C481        C  0.84521964  0.24449090  0.66070494     0.87800
C482        C  0.91367053  0.18446086  0.67133492     0.88400
C483        C  0.84510782  0.14807215  0.63124892     0.88500
H484        H  0.72778449  0.14330212  0.67006466    -0.05700
O485        O  0.78549333  0.15851407  0.69903301    -0.74700
Mg486      Mg  0.80958110  0.19661257  0.63330654     1.58000
H487        H  0.82299991  0.20704136  0.70923838    -0.05700
C488        C  0.95193143  0.30378201  0.66981291     0.93500
O489        O  0.90857241  0.25641289  0.62248542    -0.81900
C490        C  0.88610444  0.24976552  0.61094976     0.93500
O491        O  0.90029318  0.16718658  0.71894561    -0.81900
Mg492      Mg  0.75981158  0.10213178  0.68664951     1.58200
O493        O  0.93630561  0.28749485  0.65686699    -0.80300
O494        O  0.71924617  0.04363645  0.65061139    -0.82000
O495        O  0.76012556  0.63192698  0.66106001    -0.87500
C496        C  0.84692271  0.69168167  0.63020402     0.88500
Mg497      Mg  0.75293629  0.65090769  0.68397374     1.58100
O498        O  0.85020947  0.61967630  0.65089624    -0.87300
O499        O  0.76199724  0.58477211  0.65063569    -0.74600
C500        C  0.91735503  0.72128277  0.71873611     0.93500
O501        O  0.80633532  0.72061613  0.65659716    -0.74400
O502        O  0.88879599  0.72493072  0.71872649    -0.81900
Mg503      Mg  0.77248859  0.66949861  0.64110319     1.58000
C504        C  0.95285016  0.64780644  0.67314001     0.93500
O505        O  0.73720863  0.62451022  0.62344396    -0.80200
H506        H  0.82847500  0.56641184  0.65693583    -0.05500
C507        C  0.90860427  0.72352131  0.67106820     0.88400
O508        O  0.77812918  0.62021192  0.69700460    -0.74700
O509        O  0.81969598  0.66399224  0.63567436    -0.87500
O510        O  0.93889530  0.64513082  0.65922331    -0.80300
C511        C  0.88755498  0.63144429  0.61156202     0.93600
C512        C  0.73959299  0.60430767  0.61266154     0.93400
Mg513      Mg  0.88683043  0.65480115  0.69059003     1.58000
O514        O  0.92240303  0.70256187  0.70797600    -0.80200
O515        O  0.85342176  0.60219415  0.67534796    -0.74400
O516        O  0.85374316  0.62353914  0.61239680    -0.80300
O517        O  0.72229246  0.67505038  0.64622214    -0.82000
O518        O  0.80194493  0.69572943  0.71885084    -0.80300
C519        C  0.84366711  0.59498351  0.66075177     0.87900
O520        O  0.83795389  0.65724220  0.69589577    -0.87400
O521        O  0.89713326  0.68996625  0.67002765    -0.87500
O522        O  0.89354118  0.73625164  0.68043205    -0.74600
Mg523      Mg  0.80948695  0.60836466  0.63226541     1.58000
O524        O  0.90957114  0.64533675  0.62343444    -0.82000
H525        H  0.72347801  0.57968512  0.66690271    -0.05700
O526        O  0.80623033  0.70028749  0.68078624    -0.87200
H527        H  0.82908810  0.75415580  0.67580889    -0.05500
H528        H  0.81527114  0.60903118  0.70764717    -0.05700
C529        C  0.81395135  0.72607050  0.67140395     0.87800
C530        C  0.74725835  0.59819568  0.65975724     0.88400
C531        C  0.81088917  0.62835769  0.70065105     0.88500
H532        H  0.93162065  0.74244640  0.66366312    -0.05700
O533        O  0.87955354  0.69893889  0.63353704    -0.74700
Mg534      Mg  0.84619089  0.71199158  0.69911871     1.58000
H535        H  0.84287846  0.71063091  0.62276879    -0.05700
C536        C  0.70777637  0.67816273  0.65910184     0.93500
O537        O  0.74551532  0.67092265  0.70824161    -0.81900
C538        C  0.76764385  0.68569667  0.71996908     0.93500
O539        O  0.76575017  0.59670818  0.61262312    -0.81900
Mg540      Mg  0.90403559  0.66851563  0.64736416     1.58200
O541        O  0.71953675  0.67537668  0.67283260    -0.80300
O542        O  0.93843357  0.65296089  0.68554188    -0.82000
C543        C  0.61368227  0.83093722  0.85976165    -0.10100
C544        C  0.60533675  0.79741439  0.86686835    -0.03900
C545        C  0.61568078  0.77353055  0.85994031    -0.10000
C546        C  0.63358968  0.78242158  0.84486130     0.10900
C547        C  0.64290980  0.81677211  0.83748616    -0.01800
C548        C  0.63358355  0.84149769  0.84514132     0.10700
C549        C  0.64425734  0.87582564  0.83796700    -0.11800
C550        C  0.66379649  0.88586465  0.82354309    -0.11800
C551        C  0.67192777  0.86128895  0.81533298     0.10700
C552        C  0.66172858  0.82648227  0.82248837    -0.01800
C553        C  0.64264312  0.75821882  0.83705168    -0.12000
C554        C  0.65991610  0.76714265  0.82210845    -0.12000
C555        C  0.67016536  0.80128267  0.81469117     0.10900
C556        C  0.68805666  0.81070054  0.79956871    -0.10000
C557        C  0.69799894  0.84512455  0.79273033    -0.03900
C558        C  0.69042843  0.87065039  0.80029253    -0.10100
H559        H  0.63785130  0.89540674  0.84352677     0.08200
H560        H  0.67230286  0.91314768  0.81888483     0.08200
H561        H  0.63589556  0.73186402  0.84232853     0.08300
H562        H  0.66512700  0.74686097  0.81646286     0.08300
H563        H  0.59109872  0.79006366  0.87834971     0.04800
H564        H  0.71172429  0.85207900  0.78114934     0.04800
C565        C  0.02448269  0.48529846  0.46441375    -0.10100
C566        C  0.03352614  0.51972928  0.45780264    -0.03900
C567        C  0.02702761  0.54526049  0.46599798    -0.10000
C568        C  0.01058985  0.53585525  0.48148078     0.10900
C569        C  0.00155898  0.50117693  0.48851549    -0.01800
C570        C  0.00848138  0.47581044  0.47995649     0.10700
C571        C  0.99835467  0.44134266  0.48701355    -0.11800
C572        C  0.98280014  0.43227432  0.50233673    -0.11800
C573        C  0.97628613  0.45708933  0.51119888     0.10700
C574        C  0.98527366  0.49173162  0.50411523    -0.01800
C575        C  0.00308258  0.56020055  0.49016978    -0.12000
C576        C  0.98591424  0.55040800  0.50509879    -0.12000
C577        C  0.97737607  0.51670893  0.51245319     0.10900
C578        C  0.96056969  0.50701401  0.52780909    -0.10000
C579        C  0.95252478  0.47313105  0.53464838    -0.03900
C580        C  0.95995012  0.44790537  0.52673140    -0.10100
H581        H  0.00203926  0.42077314  0.48069735     0.08200
H582        H  0.97537049  0.40528670  0.50707745     0.08200
H583        H  0.01014658  0.58711874  0.48550521     0.08300
H584        H  0.97950742  0.56979562  0.51081278     0.08300
H585        H  0.04581505  0.52675930  0.44593246     0.04800
H586        H  0.94036073  0.46633251  0.54654654     0.04800
C587        C  0.50136569  0.55196639  0.47235810    -0.10100
C588        C  0.46696056  0.52916378  0.46532841    -0.03900
C589        C  0.44219491  0.49443012  0.47158178    -0.10000
C590        C  0.45171973  0.48182156  0.48552185     0.10900
C591        C  0.48589177  0.50538819  0.49330949    -0.01800
C592        C  0.51071275  0.54083746  0.48681568     0.10700
C593        C  0.54420686  0.56373263  0.49479915    -0.11800
C594        C  0.55300188  0.55232133  0.50905808    -0.11800
C595        C  0.52927149  0.51706133  0.51548863     0.10700
C596        C  0.49551945  0.49320744  0.50745427    -0.01800
C597        C  0.42807616  0.44648716  0.49187221    -0.12000
C598        C  0.43799754  0.43414843  0.50548839    -0.12000
C599        C  0.47133301  0.45717404  0.51354600     0.10900
C600        C  0.48142301  0.44511787  0.52749056    -0.10000
C601        C  0.51429627  0.46910173  0.53538606    -0.03900
C602        C  0.53802393  0.50485978  0.52980820    -0.10100
H603        H  0.56370467  0.59086622  0.49017720     0.08200
H604        H  0.57880204  0.57121962  0.51491337     0.08200
H605        H  0.40177496  0.42794724  0.48628897     0.08300
H606        H  0.41915870  0.40640378  0.50969591     0.08300
H607        H  0.45995274  0.53804546  0.45427619     0.04800
H608        H  0.52134099  0.45987738  0.54632964     0.04800
C609        C  0.45636942  0.95305679  0.47072499    -0.10100
C610        C  0.48643884  0.95101878  0.46448615    -0.03900
C611        C  0.51981421  0.96459994  0.47280155    -0.10000
C612        C  0.52411435  0.98289551  0.48763270     0.10900
C613        C  0.49354922  0.98472696  0.49429874    -0.01800
C614        C  0.45928439  0.96890647  0.48600670     0.10700
C615        C  0.42870084  0.96860089  0.49335233    -0.11800
C616        C  0.43205223  0.98514383  0.50821655    -0.11800
C617        C  0.46612901  0.00269616  0.51628618     0.10700
C618        C  0.49704751  0.00191682  0.50940217    -0.01800
C619        C  0.55769360  0.99884249  0.49609414    -0.12000
C620        C  0.56144584  0.01664563  0.51068632    -0.12000
C621        C  0.53136738  0.01800384  0.51765722     0.10900
C622        C  0.53461197  0.03514780  0.53265358    -0.10000
C623        C  0.50422689  0.03626262  0.53907212    -0.03900
C624        C  0.47007025  0.02026591  0.53125917    -0.10100
H625        H  0.40170936  0.95521149  0.48772989     0.08200
H626        H  0.40760488  0.98394080  0.51335708     0.08200
H627        H  0.58147654  0.99788484  0.49147481     0.08300
H628        H  0.58819147  0.02918335  0.51651228     0.08300
H629        H  0.48386430  0.93857139  0.45279217     0.04800
H630        H  0.50715279  0.04961867  0.55056952     0.04800
O631        O  0.97614113  0.04399041  0.00928626    -0.87500
C632        C  0.93799361  0.96594273  0.97364274     0.88500
Mg633      Mg  0.03141104  0.09006404  0.01049026     1.58100
O634        O  0.95337810  0.93552273  0.01078023    -0.87300
O635        O  0.93686610  0.99744392  0.02407129    -0.74600
C636        C  0.13541721  0.01229269  0.99815361     0.93500
O637        O  0.00221687  0.05534256  0.97236194    -0.74400
O638        O  0.13796980  0.04390503  0.99652486    -0.81900
Mg639      Mg  0.94833035  0.03509950  0.98659912     1.58000
C640        C  0.01201296  0.87758686  0.01054141     0.93500
O641        O  0.89263791  0.01807639  0.99790115    -0.80200
H642        H  0.94269446  0.92567542  0.03419093    -0.05500
C643        C  0.03786162  0.97190630  0.97813249     0.88400
O644        O  0.04832425  0.05911330  0.02829770    -0.74700
O645        O  0.93739864  0.97922442  0.98676782    -0.87500
O646        O  0.98268184  0.87534972  0.00467984    -0.80300
C647        C  0.87685954  0.86326245  0.99063350     0.93600
C648        C  0.86264761  0.98930526  0.00190726     0.93400
Mg649      Mg  0.05015895  0.96725293  0.01365976     1.58000
O650        O  0.10492749  0.98366580  0.00170581    -0.80200
O651        O  0.99687993  0.94721993  0.02830271    -0.74400
O652        O  0.87407684  0.89168730  0.99390829    -0.80300
O653        O  0.95819532  0.09337138  0.98641660    -0.82000
O654        O  0.12418741  0.11128965  0.00759854    -0.80300
C655        C  0.96316682  0.93522322  0.02473111     0.87900
O656        O  0.06106067  0.02327193  0.01384018    -0.87400
O657        O  0.02206408  0.95888478  0.99104991    -0.87500
O658        O  0.06190391  0.00596543  0.97659296    -0.74600
Mg659      Mg  0.90867989  0.94660770  0.00759634     1.58000
O660        O  0.90813216  0.86486583  0.98980448    -0.82000
H661        H  0.96766075  0.04985333  0.03241842    -0.05700
O662        O  0.04589306  0.06807105  0.98997848    -0.87200
H663        H  0.05648194  0.07734234  0.96653813    -0.05500
H664        H  0.06709846  0.02658012  0.03765219    -0.05700
C665        C  0.03600006  0.06785162  0.97599213     0.87800
C666        C  0.96041904  0.03150460  0.02225110     0.88400
C667        C  0.05957703  0.03602123  0.02698826     0.88500
H668        H  0.03048018  0.95402187  0.96779388    -0.05700
O669        O  0.94904148  0.94272273  0.97229985    -0.74700
Mg670      Mg  0.09041687  0.05659254  0.99333794     1.58000
H671        H  0.92988428  0.97501774  0.96303640    -0.05700
C672        C  0.98588889  0.12462075  0.98982221     0.93500
O673        O  0.09007982  0.13803180  0.01200560    -0.81900
C674        C  0.12128740  0.13934429  0.01163599     0.93500
O675        O  0.86121590  0.95851043  0.00443577    -0.81900
Mg676      Mg  0.96666937  0.91265872  0.99024576     1.58200
O677        O  0.01526228  0.12734587  0.99594158    -0.80300
O678        O  0.04018458  0.90870073  0.01370518    -0.82000
O679        O  0.65714114  0.38418220  0.34643902    -0.87500
C680        C  0.60062108  0.30939064  0.31136636     0.88500
Mg681      Mg  0.71420675  0.42581469  0.34308899     1.58100
O682        O  0.62893869  0.27619895  0.34417531    -0.87300
O683        O  0.62260195  0.33934228  0.36288828    -0.74600
C684        C  0.80249616  0.34340054  0.31491316     0.93500
O685        O  0.66507969  0.39693173  0.30821762    -0.74400
O686        O  0.80062697  0.37268527  0.31313938    -0.81900
Mg687      Mg  0.61984462  0.37957827  0.32743350     1.58000
C688        C  0.67549819  0.20965523  0.33556238     0.93500
O689        O  0.56872834  0.36446343  0.34363531    -0.80200
H690        H  0.62992982  0.26743570  0.36768944    -0.05500
C691        C  0.69438671  0.30314306  0.30428392     0.88400
O692        O  0.73488709  0.39179438  0.35657877    -0.74700
O693        O  0.60518068  0.32242505  0.32502960    -0.87500
O694        O  0.64601112  0.21128873  0.33353705    -0.80300
C695        C  0.54031760  0.20746643  0.32858471     0.93600
C696        C  0.53976756  0.33422347  0.34752732     0.93400
Mg697      Mg  0.72402008  0.29886985  0.33706733     1.58000
O698        O  0.77535465  0.31383643  0.32070258    -0.80200
O699        O  0.67859370  0.28297718  0.35626723    -0.74400
O700        O  0.54324469  0.23751134  0.33371769    -0.80300
O701        O  0.63687563  0.44045118  0.33019729    -0.82000
O702        O  0.79864415  0.43937542  0.32863212    -0.80300
C703        C  0.64484923  0.27490295  0.35645872     0.87900
O704        O  0.73875660  0.35548079  0.33872759    -0.87400
O705        O  0.68571587  0.29210000  0.31820085    -0.87500
O706        O  0.71755395  0.33667167  0.30120112    -0.74600
Mg707      Mg  0.58578505  0.28995849  0.34666738     1.58000
O708        O  0.56876852  0.20499165  0.32514287    -0.82000
H709        H  0.65986979  0.39124874  0.37020537    -0.05700
O710        O  0.71322588  0.40061744  0.32035200    -0.87200
H711        H  0.71424501  0.41314789  0.29715847    -0.05500
H712        H  0.75534089  0.35772238  0.36137464    -0.05700
C713        C  0.69854127  0.40429262  0.30817149     0.87800
C714        C  0.64703439  0.37271864  0.36021372     0.88400
C715        C  0.74403777  0.36816446  0.35246337     0.88500
H716        H  0.68096218  0.28410054  0.29450544    -0.05700
O717        O  0.60866335  0.28455035  0.30785908    -0.74700
Mg718      Mg  0.75557119  0.38668281  0.31667031     1.58000
H719        H  0.59032909  0.31998602  0.30207916    -0.05700
C720        C  0.66931538  0.46866624  0.33060123     0.93500
O721        O  0.77435761  0.47063174  0.33986010    -0.81900
C722        C  0.80224289  0.46865363  0.33495577     0.93500
O723        O  0.54032190  0.30410884  0.34866404    -0.81900
Mg724      Mg  0.62893787  0.25027699  0.32186126     1.58200
O725        O  0.69804302  0.46565877  0.33225789    -0.80300
O726        O  0.70745082  0.23848224  0.33551632    -0.82000
O727        O  0.28685070  0.68297026  0.65604481    -0.87500
C728        C  0.36417976  0.72567102  0.69130025     0.88500
Mg729      Mg  0.24374271  0.62678680  0.65632551     1.58100
O730        O  0.39408732  0.70618440  0.65494838    -0.87300
O731        O  0.33188455  0.72013986  0.64020974    -0.74600
C732        C  0.32091243  0.52598883  0.67239625     0.93500
O733        O  0.27631743  0.66240675  0.69368934    -0.74400
O734        O  0.29166686  0.52751827  0.67492187    -0.81900
Mg735      Mg  0.29412520  0.71361836  0.67788014     1.58000
C736        C  0.45722796  0.65488417  0.65572611     0.93500
O737        O  0.31019705  0.76852832  0.66509278    -0.80200
H738        H  0.40333994  0.71359559  0.63135303    -0.05500
C739        C  0.36459446  0.62784088  0.68977950     0.88400
O740        O  0.27562073  0.60943304  0.63931524    -0.74700
O741        O  0.35091776  0.72602893  0.67808511    -0.87500
O742        O  0.45635877  0.68328922  0.66068009    -0.80300
C743        C  0.46673706  0.78768755  0.67355107     0.93600
C744        C  0.33978894  0.79732769  0.66053761     0.93400
Mg745      Mg  0.36771039  0.60967618  0.65477463     1.58000
O746        O  0.35102038  0.55425266  0.66776272    -0.80200
O747        O  0.38547330  0.66107806  0.63891461    -0.74400
O748        O  0.43767384  0.78865005  0.66953815    -0.80300
O749        O  0.23333259  0.69959524  0.67792498    -0.82000
O750        O  0.22496941  0.53603242  0.66319293    -0.80300
C751        C  0.39501435  0.69472290  0.64139481     0.87900
O752        O  0.31134076  0.59765967  0.65449695    -0.87400
O753        O  0.37597526  0.64120277  0.67635579    -0.87500
O754        O  0.33070868  0.60464574  0.69226145    -0.74600
Mg755      Mg  0.38259864  0.75074706  0.65646567     1.58000
O756        O  0.46626974  0.75717591  0.67526735    -0.82000
H757        H  0.27892110  0.68763244  0.63272881    -0.05700
O758        O  0.26849320  0.61824722  0.67732531    -0.87200
H759        H  0.25796178  0.60952361  0.70078924    -0.05500
H760        H  0.30809879  0.58976713  0.63079349    -0.05700
C761        C  0.26676740  0.62891601  0.69093361     0.87800
C762        C  0.29807850  0.69670740  0.64266881     0.88400
C763        C  0.29853119  0.59805971  0.64118670     0.88500
H764        H  0.38371076  0.63700969  0.69973777    -0.05700
O765        O  0.38770853  0.71495395  0.69292449    -0.74700
Mg766      Mg  0.27974434  0.57383106  0.67612330     1.58000
H767        H  0.35469098  0.73365044  0.70181267    -0.05700
C768        C  0.20424330  0.66822360  0.67593323     0.93500
O769        O  0.19747885  0.56811267  0.65670455    -0.81900
C770        C  0.19637946  0.53750915  0.65892410     0.93500
O771        O  0.36969352  0.79694474  0.65792631    -0.81900
Mg772      Mg  0.41949615  0.69770425  0.67569230     1.58200
O773        O  0.20603534  0.64064163  0.67061742    -0.80300
O774        O  0.42800402  0.62331843  0.65466074    -0.82000
C775        C  0.04478176  0.66486922  0.69005101    -0.27400
C776        C  0.05858520  0.65309541  0.67744598     0.06200
C777        C  0.03677011  0.63799415  0.66362793     0.25800
C778        C  0.00198643  0.63535857  0.66240432    -0.11900
C779        C  0.98812662  0.64735356  0.67499165    -0.25800
C780        C  0.00999786  0.66204455  0.68892207     0.36600
C781        C  0.09573303  0.65667063  0.67872418     0.06200
F782        F  0.04966116  0.62694977  0.65108114    -0.19600
H783        H  0.98612131  0.62438724  0.65150283     0.16000
F784        F  0.99857261  0.67505230  0.70129151    -0.23300
H785        H  0.06107532  0.67639897  0.70081285     0.17800
C786        C  0.12744166  0.69096712  0.68198894     0.25800
C787        C  0.16263913  0.69432035  0.68188263    -0.11900
C788        C  0.16682181  0.66353373  0.67861832    -0.25900
C789        C  0.13461647  0.62874905  0.67628351     0.36800
C790        C  0.09964901  0.62559781  0.67627545    -0.27500
F791        F  0.12459287  0.72161320  0.68446039    -0.19600
H792        H  0.18670089  0.72134381  0.68374030     0.16000
F793        F  0.13667838  0.59774745  0.67350157    -0.23300
H794        H  0.07547825  0.59879799  0.67410628     0.17900
C795        C  0.56033217  0.69869350  0.64835924    -0.27400
C796        C  0.56611231  0.66917854  0.65203220     0.06200
C797        C  0.53540969  0.63390823  0.65485894     0.25800
C798        C  0.49959060  0.62877980  0.65487993    -0.11900
C799        C  0.49389794  0.65885373  0.65233300    -0.25800
C800        C  0.52456510  0.69372561  0.64856886     0.36600
C801        C  0.60410601  0.67566294  0.65414832     0.06200
F802        F  0.54023225  0.60467216  0.65809197    -0.19600
H803        H  0.47654054  0.60171975  0.65780435     0.16000
F804        F  0.52015048  0.72332029  0.64561329    -0.23300
H805        H  0.58369096  0.72599377  0.64607934     0.17800
C806        C  0.63007810  0.68941706  0.64160887     0.25800
C807        C  0.66474041  0.69212124  0.64353418    -0.11900
C808        C  0.67422247  0.68180819  0.65808249    -0.25900
C809        C  0.64884856  0.67027521  0.67093941     0.36800
C810        C  0.61414079  0.66709690  0.66889524    -0.27500
F811        F  0.62123716  0.69839640  0.62727564    -0.19600
H812        H  0.68370591  0.70114234  0.63346216     0.16000
F813        F  0.65645353  0.65978995  0.68519838    -0.23300
H814        H  0.59461035  0.65707693  0.67877213     0.17900
C815        C  0.76573236  0.73506551  0.75778338    -0.27400
C816        C  0.72765347  0.72197430  0.75964804     0.06200
C817        C  0.70260653  0.69311807  0.74962825     0.25800
C818        C  0.71566466  0.67976986  0.73731772    -0.11900
C819        C  0.75389779  0.69447640  0.73485577    -0.25800
C820        C  0.77879407  0.72136573  0.74567093     0.36600
C821        C  0.71487718  0.74128957  0.77078806     0.06200
F822        F  0.66549242  0.67847355  0.75144288    -0.19600
H823        H  0.69579222  0.65878793  0.72934198     0.16000
F824        F  0.81598924  0.73656556  0.74390395    -0.23300
H825        H  0.78573865  0.75756993  0.76512378     0.17800
C826        C  0.73021034  0.75246584  0.78623334     0.25800
C827        C  0.72108086  0.77453557  0.79570053    -0.11900
C828        C  0.69588975  0.78510673  0.79012333    -0.25900
C829        C  0.67980777  0.77311081  0.77493420     0.36800
C830        C  0.68938049  0.75167458  0.76536816    -0.27500
F831        F  0.75413018  0.74222644  0.79215245    -0.19600
H832        H  0.73396369  0.78375018  0.80733602     0.16000
F833        F  0.65532381  0.78282503  0.76921816    -0.23300
H834        H  0.67775250  0.74431043  0.75343701     0.17900
C835        C  0.66738575  0.60053275  0.58383081    -0.27400
C836        C  0.65841900  0.56893159  0.57478442     0.06200
C837        C  0.67687297  0.54902919  0.57797113     0.25800
C838        C  0.70354911  0.56052474  0.59019052    -0.11900
C839        C  0.71186937  0.59175873  0.59951412    -0.25800
C840        C  0.69365054  0.61188818  0.59603003     0.36600
C841        C  0.62871247  0.55630122  0.56255548     0.06200
F842        F  0.66813588  0.51776996  0.56966375    -0.19600
H843        H  0.71712486  0.54461936  0.59256814     0.16000
F844        F  0.70161668  0.64314451  0.60419907    -0.23300
H845        H  0.65391910  0.61655033  0.58142905     0.17800
C846        C  0.59353635  0.55067493  0.56676320     0.25800
C847        C  0.56490777  0.53666331  0.55553846    -0.11900
C848        C  0.57072795  0.52806428  0.53993373    -0.25900
C849        C  0.60618390  0.53507976  0.53547805     0.36800
C850        C  0.63498983  0.54917768  0.54673079    -0.27500
F851        F  0.58620301  0.55656683  0.58200034    -0.19600
H852        H  0.53750824  0.53064019  0.55925240     0.16000
F853        F  0.61232713  0.52634673  0.52055468    -0.23300
H854        H  0.66200286  0.55377397  0.54320705     0.17900
C855        C  0.88931475  0.59354481  0.57016533    -0.27400
C856        C  0.92204746  0.59159813  0.57097047     0.06200
C857        C  0.94497722  0.60652805  0.58451053     0.25800
C858        C  0.93460227  0.62152544  0.59712398    -0.11900
C859        C  0.90084373  0.62153324  0.59678211    -0.25800
C860        C  0.87858189  0.60801967  0.58292896     0.36600
C861        C  0.93106780  0.57192984  0.55833672     0.06200
F862        F  0.97632532  0.60446081  0.58612152    -0.19600
H863        H  0.95228869  0.63138081  0.60758676     0.16000
F864        F  0.84588987  0.60768791  0.58183832    -0.23300
H865        H  0.87150611  0.58305516  0.55976136     0.17800
C866        C  0.90388840  0.53691108  0.55269541     0.25800
C867        C  0.91354373  0.51689380  0.54222017    -0.11900
C868        C  0.95040348  0.53097875  0.53725624    -0.25900
C869        C  0.97746700  0.56614623  0.54262681     0.36800
C870        C  0.96769202  0.58663631  0.55277639    -0.27500
F871        F  0.86839177  0.52092428  0.55801927    -0.19600
H872        H  0.89235692  0.48964311  0.53837892     0.16000
F873        F  0.01358257  0.58009125  0.53855034    -0.23300
H874        H  0.98910466  0.61368968  0.55667761     0.17900
C875        C  0.61816302  0.94002343  0.65505341    -0.27400
C876        C  0.60870827  0.92274718  0.67015677     0.06200
C877        C  0.63418461  0.93822020  0.68278539     0.25800
C878        C  0.66771236  0.97114835  0.68047036    -0.11900
C879        C  0.67674393  0.98939519  0.66550316    -0.25800
C880        C  0.65179221  0.97289083  0.65267971     0.36600
C881        C  0.57202133  0.88903449  0.67264077     0.06200
F882        F  0.62590448  0.92249956  0.69757741    -0.19600
H883        H  0.68612558  0.98297555  0.69062440     0.16000
F884        F  0.65904008  0.98910239  0.63799969    -0.23300
H885        H  0.59914830  0.92820933  0.64508803     0.17800
C886        C  0.53921438  0.88884711  0.66849054     0.25800
C887        C  0.50492805  0.85631481  0.66971289    -0.11900
C888        C  0.50251535  0.82310265  0.67499306    -0.25900
C889        C  0.53532550  0.82383168  0.67990044     0.36800
C890        C  0.56961735  0.85651698  0.67874384    -0.27500
F891        F  0.54035453  0.92012838  0.66310477    -0.19600
H892        H  0.48036035  0.85691497  0.66592560     0.16000
F893        F  0.53459224  0.79280796  0.68537110    -0.23300
H894        H  0.59452998  0.85610121  0.68210284     0.17900
C895        C  0.09315907  0.47181539  0.65528439    -0.27400
C896        C  0.08984562  0.43959818  0.66214929     0.06200
C897        C  0.12205773  0.43843452  0.66608516     0.25800
C898        C  0.15686367  0.46977554  0.66404048    -0.11900
C899        C  0.16022319  0.50283019  0.65800941    -0.25800
C900        C  0.12792476  0.50317374  0.65319659     0.36600
C901        C  0.05276545  0.40710503  0.66482300     0.06200
F902        F  0.11988930  0.40701254  0.67192818    -0.19600
H903        H  0.18110719  0.46847286  0.66775606     0.16000
F904        F  0.12965403  0.53405954  0.64693981    -0.23300
H905        H  0.06864856  0.47301825  0.65193413     0.17800
C906        C  0.04279778  0.38906031  0.67976913     0.25800
C907        C  0.00879108  0.35657343  0.68165084    -0.11900
C908        C  0.98417205  0.34161890  0.66868506    -0.25900
C909        C  0.99329782  0.36119565  0.65403144     0.36800
C910        C  0.02727562  0.39356010  0.65218625    -0.27500
F911        F  0.06610726  0.40258760  0.69248943    -0.19600
H912        H  0.00247282  0.34233063  0.69307855     0.16000
F913        F  0.97009197  0.34850301  0.64124618    -0.23300
H914        H  0.03427476  0.40734803  0.64064343     0.17900
C915        C  0.68881932  0.94951951  0.77773100    -0.27400
C916        C  0.72586039  0.97055592  0.77250918     0.06200
C917        C  0.75131084  0.95959504  0.77750321     0.25800
C918        C  0.73977380  0.92824866  0.78715326    -0.11900
C919        C  0.70257290  0.90654735  0.79185108    -0.25800
C920        C  0.67707550  0.91744970  0.78697968     0.36600
C921        C  0.73720308  0.00179817  0.76087659     0.06200
F922        F  0.78693675  0.97776510  0.77228968    -0.19600
H923        H  0.75978707  0.92006423  0.79052447     0.16000
F924        F  0.64056215  0.89633294  0.79061294    -0.23300
H925        H  0.66859766  0.95734600  0.77429713     0.17800
C926        C  0.71493616  0.99798297  0.74750501     0.25800
C927        C  0.72750673  0.02540623  0.73568945    -0.11900
C928        C  0.76291213  0.05713291  0.73657897    -0.25900
C929        C  0.78459162  0.06182991  0.75028465     0.36800
C930        C  0.77160737  0.03464626  0.76234080    -0.27500
F931        F  0.68202280  0.96658539  0.74516838    -0.19600
H932        H  0.71005028  0.02057677  0.72531403     0.16000
F933        F  0.81878519  0.09199268  0.75185260    -0.23300
H934        H  0.78901594  0.03890110  0.77266896     0.17900
C935        C  0.68520034  0.12876050  0.57745453    -0.27400
C936        C  0.65284347  0.09418229  0.57894275     0.06200
C937        C  0.64733955  0.07337481  0.59300916     0.25800
C938        C  0.67416154  0.08652314  0.60504798    -0.11900
C939        C  0.70685931  0.12087827  0.60347788    -0.25800
C940        C  0.71179006  0.14223879  0.58961361     0.36600
C941        C  0.62495869  0.08001586  0.56587398     0.06200
F942        F  0.61579832  0.04050562  0.59526215    -0.19600
H943        H  0.66931396  0.06954854  0.61560612     0.16000
F944        F  0.74268653  0.17569984  0.58751606    -0.23300
H945        H  0.69031693  0.14516736  0.56669094     0.17800
C946        C  0.61320717  0.10291980  0.55861710     0.25800
C947        C  0.58538504  0.08861427  0.54701807    -0.11900
C948        C  0.56855042  0.05128319  0.54255627    -0.25900
C949        C  0.58065631  0.02852360  0.54951829     0.36800
C950        C  0.60901743  0.04296694  0.56089143    -0.27500
F951        F  0.62701721  0.13852250  0.56336320    -0.19600
H952        H  0.57576043  0.10628361  0.54198100     0.16000
F953        F  0.56378838  0.99196085  0.54590240    -0.23300
H954        H  0.61796489  0.02490928  0.56608018     0.17900
C955        C  0.88935466  0.29079499  0.56946164    -0.27400
C956        C  0.92284154  0.32478501  0.57011867     0.06200
C957        C  0.94523895  0.33225670  0.58383346     0.25800
C958        C  0.93399938  0.30677585  0.59653488    -0.11900
C959        C  0.89980326  0.27341953  0.59617326    -0.25800
C960        C  0.87782505  0.26551817  0.58228406     0.36600
C961        C  0.93221854  0.35348747  0.55729143     0.06200
F962        F  0.97679192  0.36531187  0.58555449    -0.19600
H963        H  0.95143166  0.31419765  0.60707437     0.16000
F964        F  0.84469448  0.23381694  0.58118797    -0.23300
H965        H  0.87152332  0.28410699  0.55908726     0.17800
C966        C  0.96835199  0.37464703  0.55092878     0.25800
C967        C  0.97699420  0.40406802  0.54025919    -0.11900
C968        C  0.94974528  0.41260654  0.53545580    -0.25900
C969        C  0.91329659  0.39015260  0.54109631     0.36800
C970        C  0.90476395  0.36114764  0.55185340    -0.27500
F971        F  0.99541942  0.36712498  0.55507926    -0.19600
H972        H  0.00530172  0.42103187  0.53618190     0.16000
F973        F  0.88610300  0.39728106  0.53666785    -0.23300
H974        H  0.87676119  0.34555306  0.55645518     0.17900
C975        C  0.02440537  0.80335764  0.78178258    -0.27400
C976        C  0.01953482  0.77318169  0.77248160     0.06200
C977        C  0.04176860  0.75720970  0.77577317     0.25800
C978        C  0.06968995  0.77265466  0.78741711    -0.11900
C979        C  0.07574033  0.80403279  0.79603767    -0.25800
C980        C  0.05218508  0.81865051  0.79342964     0.36600
C981        C  0.99328043  0.76043077  0.75869280     0.06200
F982        F  0.03726269  0.72736406  0.76739554    -0.19600
H983        H  0.08798785  0.76143929  0.78905971     0.16000
F984        F  0.05780108  0.84937650  0.80140886    -0.23300
H985        H  0.00806410  0.81648203  0.77942442     0.17800
C986        C  0.95706696  0.75456339  0.76029565     0.25800
C987        C  0.93308385  0.74330420  0.74710380    -0.11900
C988        C  0.94447074  0.73727992  0.73207155    -0.25900
C989        C  0.98093765  0.74387315  0.73039960     0.36800
C990        C  0.00499224  0.75545486  0.74354830    -0.27500
F991        F  0.94438507  0.75848234  0.77473686    -0.19600
H992        H  0.90508380  0.73807407  0.74880811     0.16000
F993        F  0.99353714  0.73943702  0.71602984    -0.23300
H994        H  0.03304533  0.76085451  0.74184176     0.17900
C995        C  0.02876616  0.23245706  0.78471335    -0.27400
C996        C  0.03423917  0.25364923  0.77074022     0.06200
C997        C  0.06714045  0.28805807  0.76933185     0.25800
C998        C  0.09428429  0.29994714  0.78122540    -0.11900
C999        C  0.08956495  0.27789461  0.79470096    -0.25800
C1000       C  0.05634045  0.24424685  0.79652265     0.36600
C1001       C  0.00644692  0.23946573  0.75747115     0.06200
F1002       F  0.07436946  0.30915309  0.75595834    -0.19600
H1003       H  0.12017726  0.32551365  0.77945337     0.16000
F1004       F  0.05148579  0.22191628  0.80923228    -0.23300
H1005       H  0.00348952  0.20625865  0.78630572     0.17800
C1006       C  0.99036426  0.20258056  0.75206715     0.25800
C1007       C  0.96464225  0.18993011  0.73945818    -0.11900
C1008       C  0.95521060  0.21396696  0.73166750    -0.25900
C1009       C  0.97167277  0.25093061  0.73692913     0.36800
C1010       C  0.99649646  0.26323569  0.74978035    -0.27500
F1011       F  0.00025619  0.17898122  0.75863532    -0.19600
H1012       H  0.95250691  0.16143366  0.73561070     0.16000
F1013       F  0.96281933  0.27501668  0.73003624    -0.23300
H1014       H  0.00770748  0.29148232  0.75382687     0.17900
C1015       C  0.28186291  0.42264012  0.67670691    -0.27400
C1016       C  0.31084269  0.41865468  0.67037498     0.06200
C1017       C  0.34460255  0.45043107  0.66652340     0.25800
C1018       C  0.34850164  0.48549400  0.66814746    -0.11900
C1019       C  0.31884024  0.48956380  0.67364728    -0.25800
C1020       C  0.28572031  0.45768133  0.67841450     0.36600
C1021       C  0.30574571  0.38145088  0.66750230     0.06200
F1022       F  0.37373138  0.44753008  0.66101152    -0.19600
H1023       H  0.37436057  0.50936133  0.66450174     0.16000
F1024       F  0.25644235  0.46001924  0.68416411    -0.23300
H1025       H  0.25571034  0.39848928  0.67982729     0.17800
C1026       C  0.29323837  0.35483931  0.67977169     0.25800
C1027       C  0.29268709  0.32146173  0.67739776    -0.11900
C1028       C  0.30449514  0.31398309  0.66276408    -0.25900
C1029       C  0.31446875  0.33961392  0.65011487     0.36800
C1030       C  0.31501669  0.37299370  0.65252257    -0.27500
F1031       F  0.28379345  0.36199085  0.69436776    -0.19600
H1032       H  0.28453943  0.30213376  0.68730768     0.16000
F1033       F  0.32593098  0.33365040  0.63575506    -0.23300
H1034       H  0.32384674  0.39286007  0.64279927     0.17900
C1035       C  0.35221660  0.95501215  0.67820738    -0.27400
C1036       C  0.35301626  0.94151472  0.66288092     0.06200
C1037       C  0.35605298  0.96290239  0.64936856     0.25800
C1038       C  0.35679618  0.99651731  0.65117402    -0.11900
C1039       C  0.35415782  0.00937862  0.66646655    -0.25800
C1040       C  0.35286789  0.98865263  0.68005057     0.36600
C1041       C  0.34838542  0.90417697  0.66110346     0.06200
F1042       F  0.35594329  0.95025230  0.63436708    -0.19600
H1043       H  0.35777898  0.01166571  0.64045427     0.16000
F1044       F  0.35055902  0.99987038  0.69506282    -0.23300
H1045       H  0.35018899  0.93895958  0.68877064     0.17800
C1046       C  0.37395933  0.89846858  0.65236915     0.25800
C1047       C  0.36994024  0.86319279  0.65154263    -0.11900
C1048       C  0.34031655  0.83298921  0.65933882    -0.25900
C1049       C  0.31390972  0.83858328  0.66754283     0.36800
C1050       C  0.31813801  0.87389877  0.66844336    -0.27500
F1051       F  0.40376061  0.92724313  0.64528020    -0.19600
H1052       H  0.39070714  0.85974907  0.64518279     0.16000
F1053       F  0.28503082  0.81046800  0.67541515    -0.23300
H1054       H  0.29794240  0.87775033  0.67508237     0.17900
C1055       C  0.22918797  0.93674463  0.76879354    -0.27400
C1056       C  0.23045708  0.97078152  0.77089007     0.06200
C1057       C  0.21682732  0.97734627  0.78525081     0.25800
C1058       C  0.19991439  0.94931858  0.79671556    -0.11900
C1059       C  0.19707992  0.91484965  0.79410745    -0.25800
C1060       C  0.21290156  0.90909263  0.78036362     0.36600
C1061       C  0.24323960  0.99779303  0.75753497     0.06200
F1062       F  0.21883951  0.01038367  0.78797027    -0.19600
H1063       H  0.18747201  0.95384676  0.80724942     0.16000
F1064       F  0.21027456  0.87576575  0.77766806    -0.23300
H1065       H  0.23894169  0.93070925  0.75779262     0.17800
C1066       C  0.27509937  0.00570431  0.74867439     0.25800
C1067       C  0.28534715  0.02921161  0.73544845    -0.11900
C1068       C  0.26458940  0.04593162  0.73098425    -0.25900
C1069       C  0.23297803  0.03843265  0.73991020     0.36800
C1070       C  0.22220331  0.01418834  0.75294171    -0.27500
F1071       F  0.29681072  0.99135755  0.75297239    -0.19600
H1072       H  0.31023298  0.03512957  0.72893428     0.16000
F1073       F  0.21209982  0.05387889  0.73586780    -0.23300
H1074       H  0.19698813  0.00774988  0.75928649     0.17900
C1075       C  0.29872421  0.28112162  0.75186299    -0.27400
C1076       C  0.27187051  0.25491479  0.76229798     0.06200
C1077       C  0.26065799  0.21728774  0.76003162     0.25800
C1078       C  0.27477236  0.20632501  0.74722082    -0.11900
C1079       C  0.29968390  0.23235414  0.73613109    -0.25800
C1080       C  0.31227657  0.27012181  0.73887746     0.36600
C1081       C  0.25268031  0.26676998  0.77403869     0.06200
F1082       F  0.23377702  0.19068728  0.76931183    -0.19600
H1083       H  0.26420975  0.17703674  0.74541057     0.16000
F1084       F  0.33650790  0.29646790  0.72866517    -0.23300
H1085       H  0.30820181  0.31028529  0.75339136     0.17800
C1086       C  0.24439340  0.25289595  0.78985933     0.25800
C1087       C  0.22311858  0.26204975  0.79994915    -0.11900
C1088       C  0.21048839  0.28578893  0.79459130    -0.25900
C1089       C  0.22023455  0.30092320  0.77909745     0.36800
C1090       C  0.24085263  0.29138031  0.76897479    -0.27500
F1091       F  0.25680452  0.23057317  0.79559068    -0.19600
H1092       H  0.21577536  0.24996607  0.81182276     0.16000
F1093       F  0.20874012  0.32416431  0.77356215    -0.23300
H1094       H  0.24650597  0.30238866  0.75689103     0.17900
C1095       C  0.34984851  0.03467603  0.57940029    -0.27400
C1096       C  0.37935120  0.05864182  0.56945058     0.06200
C1097       C  0.39418735  0.09706146  0.57111023     0.25800
C1098       C  0.38127106  0.11105956  0.58319245    -0.11900
C1099       C  0.35370586  0.08709180  0.59397311    -0.25800
C1100       C  0.33711663  0.04861452  0.59155389     0.36600
C1101       C  0.39711296  0.04371375  0.55864026     0.06200
F1102       F  0.42324708  0.12115457  0.56194646    -0.19600
H1103       H  0.39475927  0.14074617  0.58479636     0.16000
F1104       F  0.30973948  0.02433254  0.60138265    -0.23300
H1105       H  0.33762822  0.00500328  0.57816644     0.17800
C1106       C  0.40933735  0.02017502  0.56476997     0.25800
C1107       C  0.43039205  0.01004214  0.55523028    -0.11900
C1108       C  0.44002050  0.02336094  0.53947240    -0.25900
C1109       C  0.42632129  0.04538358  0.53305860     0.36800
C1110       C  0.40490155  0.05531189  0.54257306    -0.27500
F1111       F  0.40349953  0.00934994  0.58036717    -0.19600
H1112       H  0.44120507  0.99356159  0.56046968     0.16000
F1113       F  0.43576367  0.05935247  0.51799915    -0.23300
H1114       H  0.39560191  0.07328092  0.53759346     0.17900
C1115       C  0.40915718  0.37022256  0.55353676    -0.27400
C1116       C  0.42617126  0.34901052  0.55672752     0.06200
C1117       C  0.45748816  0.35561476  0.54769189     0.25800
C1118       C  0.47324698  0.38502714  0.53685830    -0.11900
C1119       C  0.45832461  0.40840380  0.53493477    -0.25800
C1120       C  0.42543293  0.40012907  0.54293630     0.36600
C1121       C  0.41390501  0.32328371  0.57061991     0.06200
F1122       F  0.47498149  0.33600873  0.55035940    -0.19600
H1123       H  0.49883243  0.39135148  0.53085481     0.16000
F1124       F  0.41090665  0.42279333  0.54156134    -0.23300
H1125       H  0.38444612  0.36502926  0.55999533     0.17800
C1126       C  0.40699203  0.33436150  0.58557675     0.25800
C1127       C  0.39721102  0.31088734  0.59883521    -0.11900
C1128       C  0.39474408  0.27616565  0.59760708    -0.25900
C1129       C  0.40214909  0.26524921  0.58269905     0.36800
C1130       C  0.41118216  0.28844887  0.56934951    -0.27500
F1131       F  0.41073862  0.36836466  0.58756177    -0.19600
H1132       H  0.39174685  0.32006377  0.61013172     0.16000
F1133       F  0.39973004  0.23177764  0.58083507    -0.23300
H1134       H  0.41589087  0.27902967  0.55796134     0.17900
C1135       C  0.94639445  0.18818600  0.98163108    -0.27400
C1136       C  0.97411607  0.22158741  0.98809111     0.06200
C1137       C  0.00670646  0.22369411  0.99395640     0.25800
C1138       C  0.01111847  0.19259328  0.99368638    -0.11900
C1139       C  0.98290115  0.15853380  0.98776410    -0.25800
C1140       C  0.95047321  0.15680913  0.98154436     0.36600
C1141       C  0.96890274  0.25411391  0.98908191     0.06200
F1142       F  0.03421439  0.25588530  0.00006281    -0.19600
H1143       H  0.03626692  0.19497879  0.99862156     0.16000
F1144       F  0.92213036  0.12466226  0.97582208    -0.23300
H1145       H  0.92108283  0.18615102  0.97707784     0.17800
C1146       C  0.96653248  0.27173863  0.97516142     0.25800
C1147       C  0.96590917  0.30492126  0.97627915    -0.11900
C1148       C  0.96745491  0.32101728  0.99131062    -0.25900
C1149       C  0.96757530  0.30190643  0.00528234     0.36800
C1150       C  0.96850171  0.26894769  0.00410048    -0.27500
F1151       F  0.96706566  0.25803613  0.96047481    -0.19600
H1152       H  0.96585867  0.31881400  0.96530983     0.16000
F1153       F  0.96856431  0.31575114  0.02011335    -0.23300
H1154       H  0.96991266  0.25540588  0.01495448     0.17900
C1155       C  0.04885959  0.81210599  0.01967538    -0.27400
C1156       C  0.02164265  0.77927696  0.01259068     0.06200
C1157       C  0.99007946  0.77809292  0.00598563     0.25800
C1158       C  0.98630815  0.80961943  0.00608869    -0.11900
C1159       C  0.01416702  0.84317470  0.01261630    -0.25800
C1160       C  0.04543742  0.84389806  0.01960788     0.36600
C1161       C  0.02632074  0.74636519  0.01183949     0.06200
F1162       F  0.96305558  0.74645117  0.99927626    -0.19600
H1163       H  0.96201388  0.80798897  0.00055765     0.16000
F1164       F  0.07320691  0.87545127  0.02604320    -0.23300
H1165       H  0.07328120  0.81335841  0.02488655     0.17800
C1166       C  0.03376104  0.73482394  0.99718236     0.25800
C1167       C  0.03484032  0.70182441  0.99626016    -0.11900
C1168       C  0.02838939  0.67959412  0.00994147    -0.25900
C1169       C  0.02227925  0.69215244  0.02477160     0.36800
C1170       C  0.02143417  0.72526698  0.02564344    -0.27500
F1171       F  0.03932136  0.75521037  0.98370085    -0.19600
H1172       H  0.03965064  0.69314843  0.98470474     0.16000
F1173       F  0.01528625  0.67170902  0.03834340    -0.23300
H1174       H  0.01561109  0.73380682  0.03702698     0.17900
C1175       C  0.05782990  0.62956739  0.90463499    -0.27400
C1176       C  0.06539219  0.66608507  0.90691140     0.06200
C1177       C  0.05637683  0.67569127  0.92173314     0.25800
C1178       C  0.04146053  0.64970027  0.93410960    -0.11900
C1179       C  0.03579616  0.61372322  0.93217276    -0.25800
C1180       C  0.04344594  0.60366542  0.91713103     0.36600
C1181       C  0.08482257  0.69464758  0.89429900     0.06200
F1182       F  0.06425897  0.71089165  0.92467713    -0.19600
H1183       H  0.03631844  0.65853759  0.94556144     0.16000
F1184       F  0.03790359  0.56914027  0.91456951    -0.23300
H1185       H  0.06388112  0.62128802  0.89324275     0.17800
C1186       C  0.11724616  0.69888360  0.88699544     0.25800
C1187       C  0.13744725  0.72810138  0.87636443    -0.11900
C1188       C  0.12590286  0.75369077  0.87285460    -0.25900
C1189       C  0.09320575  0.74917371  0.87984402     0.36800
C1190       C  0.07265911  0.71964852  0.89031656    -0.27500
F1191       F  0.13073523  0.67621882  0.89087117    -0.19600
H1192       H  0.16299223  0.73164601  0.87130404     0.16000
F1193       F  0.08215900  0.77431638  0.87713107    -0.23300
H1194       H  0.04770166  0.71688815  0.89566892     0.17900
C1195       C  0.10367059  0.36930774  0.90020481    -0.27400
C1196       C  0.09961988  0.39951220  0.89551389     0.06200
C1197       C  0.10977451  0.41320009  0.87975432     0.25800
C1198       C  0.12495655  0.39787604  0.86924281    -0.11900
C1199       C  0.13026805  0.36865237  0.87422194    -0.25800
C1200       C  0.11881568  0.35409464  0.88974378     0.36600
C1201       C  0.08587485  0.41690924  0.90735152     0.06200
F1202       F  0.10554421  0.44173843  0.87459478    -0.19600
H1203       H  0.13431529  0.41005038  0.85748185     0.16000
F1204       F  0.12431844  0.32644719  0.89509893    -0.23300
H1205       H  0.09651767  0.35839548  0.91227622     0.17800
C1206       C  0.05406361  0.39486912  0.91659360     0.25800
C1207       C  0.04266167  0.41071952  0.92847579    -0.11900
C1208       C  0.06236860  0.44906708  0.93150539    -0.25900
C1209       C  0.09385939  0.47136402  0.92205295     0.36800
C1210       C  0.10545685  0.45536146  0.91015075    -0.27500
F1211       F  0.03362456  0.35786445  0.91402895    -0.19600
H1212       H  0.01800038  0.39269822  0.93531205     0.16000
F1213       F  0.11413967  0.50835174  0.92462799    -0.23300
H1214       H  0.13037091  0.47295649  0.90338302     0.17900
C1215       C  0.18636376  0.24094713  0.02146938    -0.27400
C1216       C  0.22054228  0.24509877  0.01677244     0.06200
C1217       C  0.22244700  0.21388001  0.01192662     0.25800
C1218       C  0.19033132  0.17925439  0.01113432    -0.11900
C1219       C  0.15554076  0.17510999  0.01497064    -0.25800
C1220       C  0.15402396  0.20634872  0.02052105     0.36600
C1221       C  0.25380876  0.28222806  0.01579237     0.06200
F1222       F  0.25535440  0.21714188  0.00755005    -0.19600
H1223       H  0.19261895  0.15595801  0.00686629     0.16000
F1224       F  0.12128600  0.20387930  0.02457310    -0.23300
H1225       H  0.18454128  0.26481619  0.02527611     0.17800
C1226       C  0.26876997  0.29759784  0.00077305     0.25800
C1227       C  0.30200638  0.33117052  0.99971055    -0.11900
C1228       C  0.32131817  0.34996971  0.01361897    -0.25900
C1229       C  0.30534819  0.33510582  0.02871879     0.36800
C1230       C  0.27175309  0.30160583  0.02972777    -0.27500
F1231       F  0.25154877  0.27961378  0.98710646    -0.19600
H1232       H  0.31331115  0.34167020  0.98792286     0.17200
F1233       F  0.32262869  0.35214608  0.04252644    -0.23300
H1234       H  0.26040194  0.29009266  0.04139788     0.17900
C1235       C  0.73333864  0.69922619  0.00302646    -0.27400
C1236       C  0.74216778  0.72143393  0.98927849     0.06200
C1237       C  0.71828450  0.70871459  0.97604126     0.25800
C1238       C  0.68559849  0.67450392  0.97668977    -0.11900
C1239       C  0.67584709  0.65263995  0.99065820    -0.25800
C1240       C  0.70037035  0.66526327  0.00381852     0.36600
C1241       C  0.77646670  0.75775676  0.98880844     0.06200
F1242       F  0.72656956  0.72949446  0.96251423    -0.19600
H1243       H  0.66723895  0.66579456  0.96643262     0.16000
F1244       F  0.69232907  0.64519278  0.01755167    -0.23300
H1245       H  0.75165699  0.70865992  0.01330423     0.17800
C1246       C  0.77508975  0.79065343  0.98767236     0.25800
C1247       C  0.80786162  0.82489359  0.98770535    -0.11900
C1248       C  0.84255740  0.82689289  0.98879000    -0.25900
C1249       C  0.84365367  0.79363881  0.98971231     0.36800
C1250       C  0.81086703  0.75953852  0.98980688    -0.27500
F1251       F  0.74202486  0.78966786  0.98711610    -0.19600
H1252       H  0.80600825  0.84987363  0.98719093     0.16000
F1253       F  0.87623909  0.79387496  0.99115019    -0.23300
H1254       H  0.81228103  0.73435885  0.99075212     0.17900
C1255       C  0.52964439  0.63625788  0.90923660    -0.27400
C1256       C  0.56800377  0.65656462  0.90614952     0.06200
C1257       C  0.59216008  0.65212231  0.91648318     0.25800
C1258       C  0.57843981  0.62906020  0.92980591    -0.11900
C1259       C  0.54021170  0.60900824  0.93307181    -0.25800
C1260       C  0.51574388  0.61233961  0.92247231     0.36600
C1261       C  0.58312196  0.68449620  0.89304524     0.06200
F1262       F  0.62920145  0.66982352  0.91365010    -0.19600
H1263       H  0.59804757  0.62648805  0.93745933     0.16000
F1264       F  0.47861265  0.59317697  0.92502794    -0.23300
H1265       H  0.51043585  0.63958345  0.90163528     0.17800
C1266       C  0.56694336  0.67734811  0.87766716     0.25800
C1267       C  0.57953770  0.70570594  0.86618417    -0.11900
C1268       C  0.60882613  0.74117730  0.86979264    -0.25900
C1269       C  0.62641366  0.74756524  0.88474129     0.36800
C1270       C  0.61336073  0.71973809  0.89627388    -0.27500
F1271       F  0.53852130  0.64332229  0.87387064    -0.19600
H1272       H  0.56533413  0.70052446  0.85479279     0.16000
F1273       F  0.65454883  0.78174474  0.88859810    -0.23300
H1274       H  0.62593581  0.72643900  0.90804848     0.17900
C1275       C  0.30097807  0.42088521  0.88989060    -0.27400
C1276       C  0.30933169  0.39396979  0.89533691     0.06200
C1277       C  0.28912886  0.35780785  0.88916626     0.25800
C1278       C  0.25992921  0.34848644  0.87846647    -0.11900
C1279       C  0.25087789  0.37517085  0.87349442    -0.25800
C1280       C  0.27226394  0.41171036  0.87899638     0.36600
C1281       C  0.33684076  0.40319985  0.90838508     0.06200
F1282       F  0.29710318  0.33130554  0.89373301    -0.19600
H1283       H  0.24349806  0.32009786  0.87448998     0.16000
F1284       F  0.26427696  0.43816636  0.87434139    -0.23300
H1285       H  0.31561141  0.44875518  0.89461051     0.17800
C1286       C  0.37095526  0.43647135  0.90817047     0.25800
C1287       C  0.39461109  0.44676186  0.92139739    -0.11900
C1288       C  0.38490561  0.42415216  0.93513105    -0.25900
C1289       C  0.35141468  0.39008703  0.93505053     0.36800
C1290       C  0.32769899  0.37994987  0.92184465    -0.27500
F1291       F  0.38124652  0.45935968  0.89526390    -0.19600
H1292       H  0.42017976  0.47306010  0.92101648     0.16000
F1293       F  0.34051687  0.36726843  0.94799011    -0.23300
H1294       H  0.30130764  0.35452281  0.92246388     0.17900
C1295       C  0.72674101  0.02751347  0.00768907    -0.27400
C1296       C  0.73265969  0.00453328  0.99728822     0.06200
C1297       C  0.70743487  0.98633808  0.98479301     0.25800
C1298       C  0.67649321  0.99070926  0.98294604    -0.11900
C1299       C  0.66986504  0.01272332  0.99368952    -0.25800
C1300       C  0.69557376  0.03150374  0.00599208     0.36600
C1301       C  0.76552985  0.00024112  0.99943060     0.06200
F1302       F  0.71266805  0.96430774  0.97440821    -0.19600
H1303       H  0.65683539  0.97552399  0.97352433     0.16000
F1304       F  0.69030532  0.05322963  0.01654030    -0.23300
H1305       H  0.74592209  0.04175844  0.01738350     0.17800
C1306       C  0.80097922  0.03156618  0.99996835     0.25800
C1307       C  0.83210825  0.02760569  0.00155026    -0.11900
C1308       C  0.82869162  0.99232549  0.00253851    -0.25900
C1309       C  0.79300037  0.96088169  0.00241676     0.36800
C1310       C  0.76172904  0.96493867  0.00085389    -0.27500
F1311       F  0.80563579  0.06601474  0.99826229    -0.19600
H1312       H  0.85910558  0.05238578  0.00154110     0.16000
F1313       F  0.78827376  0.92627494  0.00317901    -0.23300
H1314       H  0.73449459  0.94048573  0.00061577     0.17900
C1315       C  0.23376989  0.02963066  0.00177282    -0.27400
C1316       C  0.22789567  0.99370754  0.99965119     0.06200
C1317       C  0.19250764  0.96499578  0.99564848     0.25800
C1318       C  0.16307396  0.97187759  0.99436679    -0.11900
C1319       C  0.16836857  0.00759035  0.99696616    -0.25800
C1320       C  0.20429508  0.03668949  0.00036868     0.36600
C1321       C  0.25897225  0.98643837  0.00114893     0.06200
F1322       F  0.18627732  0.93012186  0.99337157    -0.19600
H1323       H  0.13578891  0.94890315  0.99169996     0.16000
F1324       F  0.21064101  0.07144412  0.00309994    -0.23300
H1325       H  0.26116462  0.05211048  0.00467545     0.17800
C1326       C  0.27672743  0.98388377  0.98736853     0.25800
C1327       C  0.30748869  0.97913442  0.98871426    -0.11900
C1328       C  0.32137458  0.97703773  0.00386125    -0.25900
C1329       C  0.30217074  0.97763426  0.01769241     0.36800
C1330       C  0.27126347  0.98245549  0.01628883    -0.27500
F1331       F  0.26517761  0.98750742  0.97260607    -0.19600
H1332       H  0.32143733  0.97882731  0.97780090     0.16000
F1333       F  0.31366424  0.97449092  0.03253531    -0.23300
H1334       H  0.25726938  0.98373095  0.02701670     0.17900
C1335       C  0.30983171  0.89959318  0.87784245    -0.27400
C1336       C  0.30512576  0.91081409  0.89316890     0.06200
C1337       C  0.26935636  0.90243137  0.89797993     0.25800
C1338       C  0.23911390  0.88289680  0.88782364    -0.11900
C1339       C  0.24357910  0.87090049  0.87271502    -0.25800
C1340       C  0.27929176  0.87957143  0.86771274     0.36600
C1341       C  0.33663277  0.92899814  0.90461793     0.06200
F1342       F  0.26319592  0.91119851  0.91290108    -0.19600
H1343       H  0.21172870  0.87590422  0.89199442     0.16000
F1344       F  0.28438684  0.86753268  0.85333681    -0.23300
H1345       H  0.33706677  0.90572775  0.87384619     0.17800
C1346       C  0.35898078  0.91334597  0.90805051     0.25800
C1347       C  0.38477573  0.92739548  0.92055060    -0.11900
C1348       C  0.38852623  0.95695891  0.93005512    -0.25900
C1349       C  0.36763310  0.97389220  0.92603663     0.36800
C1350       C  0.34222148  0.96017167  0.91337667    -0.27500
F1351       F  0.35404545  0.88277893  0.90014422    -0.19600
H1352       H  0.40026041  0.91358857  0.92338784     0.16000
F1353       F  0.37097396  0.00306288  0.93458887    -0.23300
H1354       H  0.32587178  0.97317075  0.91075707     0.17900
C1355       C  0.55145766  0.85433589  0.88350590    -0.27400
C1356       C  0.57721655  0.88518751  0.89230954     0.06200
C1357       C  0.61517834  0.90134547  0.88850088     0.25800
C1358       C  0.62702478  0.88541125  0.87681836    -0.11900
C1359       C  0.60123605  0.85355210  0.86862552    -0.25800
C1360       C  0.56326889  0.83875317  0.87174771     0.36600
C1361       C  0.56434712  0.89828071  0.90615912     0.06200
F1362       F  0.64088827  0.93184633  0.89638902    -0.19600
H1363       H  0.65641776  0.89673582  0.87476899     0.16000
F1364       F  0.53778319  0.80753015  0.86419361    -0.23300
H1365       H  0.52219875  0.84095428  0.88632381     0.17800
C1366       C  0.53293404  0.90250027  0.90494144     0.25800
C1367       C  0.52003326  0.91294744  0.91831582    -0.11900
C1368       C  0.53841995  0.91995301  0.93312475    -0.25900
C1369       C  0.56979439  0.91563118  0.93435282     0.36800
C1370       C  0.58233389  0.90463633  0.92103760    -0.27500
F1371       F  0.51526503  0.89752635  0.89071141    -0.19600
H1372       H  0.49625535  0.91670854  0.91692841     0.16000
F1373       F  0.58825149  0.92171601  0.94844048    -0.23300
H1374       H  0.60594681  0.90061844  0.92243375     0.17900
C1375       C  0.92115103  0.59386023  0.07941574    -0.27400
C1376       C  0.91339182  0.57672595  0.09455305     0.06200
C1377       C  0.91720396  0.54520214  0.09656271     0.25800
C1378       C  0.92848376  0.53137793  0.08372752    -0.11900
C1379       C  0.93666607  0.54883852  0.06865166    -0.25800
C1380       C  0.93285472  0.58037436  0.06665849     0.36600
C1381       C  0.89929425  0.59065989  0.10776605     0.06200
F1382       F  0.91087919  0.52820130  0.11104013    -0.19600
H1383       H  0.93165242  0.50743274  0.08571092     0.16000
F1384       F  0.93983157  0.59797218  0.05229313    -0.23300
H1385       H  0.91750620  0.61748473  0.07733613     0.17800
C1386       C  0.91516986  0.62885943  0.11092938     0.25800
C1387       C  0.89844984  0.64163564  0.12187842    -0.11900
C1388       C  0.86587165  0.61665012  0.12996303    -0.25900
C1389       C  0.85123174  0.57849913  0.12748672     0.36800
C1390       C  0.86772929  0.56573402  0.11651676    -0.27500
F1391       F  0.94624876  0.65393780  0.10310731    -0.19600
H1392       H  0.90980417  0.67112650  0.12340907     0.16000
F1393       F  0.81944008  0.55362841  0.13493936    -0.23300
H1394       H  0.85449624  0.53631260  0.11422495     0.17900
C1395       C  0.71729884  0.64504410  0.11101379    -0.27400
C1396       C  0.69280402  0.60865591  0.10607463     0.06200
C1397       C  0.69796825  0.57975000  0.11172295     0.25800
C1398       C  0.72725673  0.58726669  0.12206072    -0.11900
C1399       C  0.75192765  0.62365265  0.12688051    -0.25800
C1400       C  0.74672587  0.65257226  0.12130092     0.36600
C1401       C  0.66465252  0.60137979  0.09365295     0.06200
F1402       F  0.67605663  0.54457345  0.10648464    -0.19600
H1403       H  0.73131455  0.56478152  0.12601053     0.16000
F1404       F  0.77092835  0.68817806  0.12532279    -0.23300
H1405       H  0.71411863  0.66771893  0.10656613     0.17800
C1406       C  0.62744089  0.57378068  0.09572409     0.25800
C1407       C  0.60270231  0.56320048  0.08284862    -0.11900
C1408       C  0.61459660  0.58033339  0.06779577    -0.25900
C1409       C  0.65133609  0.60964330  0.06610106     0.36800
C1410       C  0.67597887  0.61995170  0.07892969    -0.27500
F1411       F  0.61532174  0.55648474  0.11007617    -0.19600
H1412       H  0.57453080  0.54086324  0.08452213     0.16000
F1413       F  0.66441166  0.62657489  0.05174416    -0.23300
H1414       H  0.70458672  0.64116195  0.07708465     0.17900
C1415       C  0.64372578  0.03832986  0.34595988    -0.27400
C1416       C  0.65729132  0.06353434  0.33319300     0.06200
C1417       C  0.66816385  0.05366150  0.31893989     0.25800
C1418       C  0.66743932  0.01990918  0.31785096    -0.11900
C1419       C  0.65606191  0.99551682  0.33098416    -0.25800
C1420       C  0.64306875  0.00458557  0.34491966     0.36600
C1421       C  0.66221509  0.10090659  0.33509017     0.06200
F1422       F  0.68020927  0.07704625  0.30618609    -0.19600
H1423       H  0.67737616  0.01366193  0.30695185     0.16000
F1424       F  0.63072386  0.98142528  0.35773578    -0.23300
H1425       H  0.63503938  0.04543790  0.35699878     0.17800
C1426       C  0.63245758  0.10593249  0.33944453     0.25800
C1427       C  0.63737749  0.14156392  0.34029178    -0.11900
C1428       C  0.67210502  0.17273698  0.33696851    -0.25900
C1429       C  0.70226578  0.16758123  0.33335516     0.36800
C1430       C  0.69719354  0.13195663  0.33239164    -0.27500
F1431       F  0.59831653  0.07639372  0.34216252    -0.19600
H1432       H  0.61369896  0.14468899  0.34313830     0.16000
F1433       F  0.73624041  0.19670539  0.32994885    -0.23300
H1434       H  0.72057636  0.12852747  0.32929325     0.17900
C1435       C  0.69684957  0.63753701  0.32254231    -0.27400
C1436       C  0.69189034  0.61606091  0.33617186     0.06200
C1437       C  0.69062857  0.62982468  0.35135977     0.25800
C1438       C  0.69209341  0.66395895  0.35276244    -0.11900
C1439       C  0.69470359  0.68467745  0.33900683    -0.25800
C1440       C  0.69823465  0.67151245  0.32385288     0.36600
C1441       C  0.68589950  0.57844164  0.33426492     0.06200
F1442       F  0.68708191  0.60980403  0.36475481    -0.19600
H1443       H  0.68961583  0.67337720  0.36454959     0.16000
F1444       F  0.70140463  0.69049878  0.31014989    -0.23300
H1445       H  0.69816868  0.62724407  0.31077900     0.17800
C1446       C  0.65039758  0.54766396  0.33629199     0.25800
C1447       C  0.64467906  0.51192842  0.33425940    -0.11900
C1448       C  0.67441142  0.50642187  0.33034154    -0.25900
C1449       C  0.70989823  0.53762879  0.32796660     0.36800
C1450       C  0.71536562  0.57326916  0.32980603    -0.27500
F1451       F  0.62133147  0.55227732  0.34024739    -0.19600
H1452       H  0.61723067  0.48857074  0.33628451     0.16000
F1453       F  0.73952562  0.53385854  0.32409727    -0.23300
H1454       H  0.74276366  0.59690588  0.32800402     0.17900
C1455       C  0.62281984  0.95505520  0.41742675    -0.27400
C1456       C  0.61321149  0.93457220  0.43176318     0.06200
C1457       C  0.61966063  0.90448941  0.43290066     0.25800
C1458       C  0.63403326  0.89456647  0.41980018    -0.11900
C1459       C  0.64271748  0.91454883  0.40532052    -0.25800
C1460       C  0.63757285  0.94547064  0.40442959     0.36600
C1461       C  0.59339972  0.94277888  0.44468148     0.06200
F1462       F  0.61163457  0.88429773  0.44659511    -0.19600
H1463       H  0.63758748  0.87063723  0.42088335     0.16000
F1464       F  0.64444761  0.96517919  0.39064863    -0.23300
H1465       H  0.61726155  0.97762813  0.41594084     0.17800
C1466       C  0.60379050  0.97948195  0.44892086     0.25800
C1467       C  0.58115139  0.98675945  0.45899550    -0.11900
C1468       C  0.54829133  0.95762846  0.46534929    -0.25900
C1469       C  0.53928130  0.92101868  0.46202325     0.36800
C1470       C  0.56137015  0.91374619  0.45172250    -0.27500
F1471       F  0.63527565  0.00839291  0.44295753    -0.19600
H1472       H  0.58839625  0.01515503  0.46124833     0.16000
F1473       F  0.50764934  0.89221724  0.46797264    -0.23300
H1474       H  0.55212718  0.88528721  0.44856254     0.17900
C1475       C  0.56239122  0.69526569  0.42563266    -0.27400
C1476       C  0.57973076  0.67454009  0.42918080     0.06200
C1477       C  0.61037283  0.68019058  0.41994581     0.25800
C1478       C  0.62251333  0.70502712  0.40712755    -0.11900
C1479       C  0.60482281  0.72528089  0.40330984    -0.25800
C1480       C  0.57490453  0.72061446  0.41288561     0.36600
C1481       C  0.56378249  0.64464160  0.44140296     0.06200
F1482       F  0.62867648  0.66167575  0.42333635    -0.19600
H1483       H  0.64617372  0.70865207  0.40024759     0.16000
F1484       F  0.55699553  0.73957368  0.40965007    -0.23300
H1485       H  0.53838066  0.69097855  0.43242027     0.17800
C1486       C  0.55371981  0.65034404  0.45683206     0.25800
C1487       C  0.53544566  0.62053275  0.46749913    -0.11900
C1488       C  0.52738271  0.58490920  0.46294243    -0.25900
C1489       C  0.53874328  0.57960146  0.44780033     0.36800
C1490       C  0.55660276  0.60910585  0.43716551    -0.27500
F1491       F  0.56100195  0.68449891  0.46146998    -0.19600
H1492       H  0.52628257  0.62490308  0.47902963     0.16000
F1493       F  0.53051958  0.54525400  0.44295856    -0.23300
H1494       H  0.56342068  0.60379027  0.42529362     0.17900
C1495       C  0.70055353  0.71346181  0.25037317    -0.27400
C1496       C  0.72822702  0.73860996  0.23991991     0.06200
C1497       C  0.74117905  0.77665170  0.24193137     0.25800
C1498       C  0.72815666  0.78909295  0.25458849    -0.11900
C1499       C  0.70243387  0.76411112  0.26574293    -0.25800
C1500       C  0.68800901  0.72592509  0.26322491     0.36600
C1501       C  0.74586208  0.72542886  0.22801082     0.06200
F1502       F  0.76845928  0.80213370  0.23241972    -0.19600
H1503       H  0.74002116  0.81863451  0.25617638     0.16000
F1504       F  0.66280112  0.70055034  0.27347853    -0.23300
H1505       H  0.68943215  0.68399391  0.24890586     0.17800
C1506       C  0.75724754  0.70012931  0.23265154     0.25800
C1507       C  0.77724407  0.69075062  0.22207915    -0.11900
C1508       C  0.78708304  0.70675773  0.20676370    -0.25900
C1509       C  0.77502882  0.73128835  0.20187916     0.36800
C1510       C  0.75415655  0.74008558  0.21234760    -0.27500
F1511       F  0.75142312  0.68638038  0.24779639    -0.19600
H1512       H  0.78678559  0.67224600  0.22615847     0.16000
F1513       F  0.78497636  0.74810789  0.18733970    -0.23300
H1514       H  0.74544768  0.75929103  0.20837248     0.17900
C1515       C  0.36704417  0.06801769  0.32148503    -0.27400
C1516       C  0.39498567  0.07763539  0.33292847     0.06200
C1517       C  0.38728905  0.05602923  0.34685932     0.25800
C1518       C  0.35240356  0.02461469  0.34904816    -0.11900
C1519       C  0.32477537  0.01387213  0.33726395    -0.25800
C1520       C  0.33236119  0.03631356  0.32350798     0.36600
C1521       C  0.43194262  0.11052716  0.33038463     0.06200
F1522       F  0.41362144  0.06525420  0.35830017    -0.19600
H1523       H  0.34756758  0.00782926  0.35966936     0.16000
F1524       F  0.30655697  0.02732841  0.31183819    -0.23300
H1525       H  0.37245440  0.08463237  0.31075975     0.17800
C1526       C  0.46364358  0.10705581  0.32864995     0.25800
C1527       C  0.49870700  0.13863509  0.32721616    -0.11900
C1528       C  0.50278120  0.17421808  0.32765763    -0.25900
C1529       C  0.47063288  0.17738836  0.32877034     0.36800
C1530       C  0.43564838  0.14578816  0.33001687    -0.27500
F1531       F  0.46067264  0.07313049  0.32848185    -0.19600
H1532       H  0.52278792  0.13522175  0.32636267     0.16000
F1533       F  0.47289739  0.21100360  0.32899187    -0.23300
H1534       H  0.41141436  0.14887258  0.33119152     0.17900
C1535       C  0.90573431  0.53166650  0.32950237    -0.27400
C1536       C  0.90994507  0.56585788  0.33388293     0.06200
C1537       C  0.87924461  0.56803864  0.33939156     0.25800
C1538       C  0.84440842  0.53615027  0.34022110    -0.11900
C1539       C  0.83979667  0.50165122  0.33562463    -0.25800
C1540       C  0.87112003  0.49973379  0.33042298     0.36600
C1541       C  0.94654327  0.59920120  0.33264093     0.06200
F1542       F  0.88283754  0.60115421  0.34351991    -0.19600
H1543       H  0.82092760  0.53864425  0.34410752     0.16000
F1544       F  0.86846407  0.46719973  0.32596859    -0.23300
H1545       H  0.92937939  0.52976227  0.32533347     0.17800
C1546       C  0.96641299  0.61665100  0.34651564     0.25800
C1547       C  0.00039184  0.64920445  0.34532176    -0.11900
C1548       C  0.01490125  0.66523136  0.33025697    -0.25900
C1549       C  0.99545168  0.64668995  0.31629553     0.36800
C1550       C  0.96156421  0.61378393  0.31754856    -0.27500
F1551       F  0.95264779  0.60242829  0.36121914    -0.19600
H1552       H  0.01465104  0.66254681  0.35629650     0.16000
F1553       F  0.00831032  0.66085903  0.30149036    -0.23300
H1554       H  0.94645671  0.60019677  0.30675529     0.17900
C1555       C  0.08386539  0.63584216  0.44332046    -0.27400
C1556       C  0.05709634  0.64563876  0.43929633     0.06200
C1557       C  0.02058477  0.62321188  0.44494216     0.25800
C1558       C  0.01104328  0.59116745  0.45391725    -0.11900
C1559       C  0.03777906  0.58116286  0.45773930    -0.25800
C1560       C  0.07441931  0.60407458  0.45241010     0.36600
C1561       C  0.06681876  0.67688231  0.42791474     0.06200
F1562       F  0.99403798  0.63208780  0.44165460    -0.19600
H1563       H  0.98253905  0.57371199  0.45764892     0.16000
F1564       F  0.10098099  0.59520404  0.45567601    -0.23300
H1565       H  0.11196418  0.65207805  0.43889063     0.17800
C1566       C  0.09951474  0.71128803  0.42967771     0.25800
C1567       C  0.11123214  0.73806663  0.41747793    -0.11900
C1568       C  0.09049774  0.73129449  0.40330807    -0.25900
C1569       C  0.05648714  0.69771712  0.40208561     0.36800
C1570       C  0.04505640  0.67099512  0.41420346    -0.27500
F1571       F  0.12060036  0.71869970  0.44304743    -0.19600
H1572       H  0.13727000  0.76360164  0.41889373     0.16000
F1573       F  0.03525317  0.68931316  0.38870586    -0.23300
H1574       H  0.02000966  0.64469514  0.41241198     0.17900
C1575       C  0.34704390  0.92472388  0.41046202    -0.27400
C1576       C  0.33897374  0.90301578  0.42433753     0.06200
C1577       C  0.30456704  0.87044457  0.42571312     0.25800
C1578       C  0.27859491  0.85993564  0.41338866    -0.11900
C1579       C  0.28637046  0.88179159  0.39950747    -0.25800
C1580       C  0.32114150  0.91429536  0.39811294     0.36600
C1581       C  0.36671199  0.91463002  0.43726719     0.06200
F1582       F  0.29564466  0.84940294  0.43918371    -0.19600
H1583       H  0.25203642  0.83500338  0.41489120     0.16000
F1584       F  0.33031899  0.93603835  0.38485072    -0.23300
H1585       H  0.37362971  0.94974509  0.40916023     0.17800
C1586       C  0.37917291  0.89084515  0.44272233     0.25800
C1587       C  0.40692748  0.90290860  0.45430516    -0.11900
C1588       C  0.42298643  0.93894492  0.46048742    -0.25900
C1589       C  0.41021733  0.96260729  0.45515939     0.36800
C1590       C  0.38214202  0.95038716  0.44369098    -0.27500
F1591       F  0.36596404  0.85672507  0.43622537    -0.19600
H1592       H  0.41692740  0.88456378  0.45805933     0.16000
F1593       F  0.42600409  0.99798721  0.46050321    -0.23300
H1594       H  0.37291623  0.96909458  0.43955513     0.17900
C1595       C  0.00242173  0.73916200  0.25261555    -0.27400
C1596       C  0.99486184  0.76270779  0.24333341     0.06200
C1597       C  0.01401321  0.80090279  0.24685012     0.25800
C1598       C  0.04092010  0.81502737  0.25900817    -0.11900
C1599       C  0.04834584  0.79128338  0.26825364    -0.25800
C1600       C  0.02835358  0.75299236  0.26498839     0.36600
C1601       C  0.96578665  0.74648710  0.23063679     0.06200
F1602       F  0.00581172  0.82443192  0.23900324    -0.19600
H1603       H  0.05541734  0.84445681  0.26140716     0.16000
F1604       F  0.03436730  0.72868147  0.27348187    -0.23300
H1605       H  0.98827828  0.70972707  0.25023062     0.17800
C1606       C  0.97088657  0.76264417  0.21528867     0.25800
C1607       C  0.94217687  0.74761010  0.20394792    -0.11900
C1608       C  0.90832427  0.71591071  0.20760517    -0.25900
C1609       C  0.90398180  0.69865530  0.22254868     0.36800
C1610       C  0.93227295  0.71386286  0.23392009    -0.27500
F1611       F  0.00346747  0.79294997  0.21124297    -0.19600
H1612       H  0.94578881  0.76153748  0.19256343     0.16000
F1613       F  0.87136595  0.66817262  0.22646381    -0.23300
H1614       H  0.92738177  0.70072280  0.24556741     0.17900
C1615       C  0.94562764  0.37089904  0.09533120    -0.27400
C1616       C  0.94131199  0.33551753  0.09307592     0.06200
C1617       C  0.95300433  0.32786789  0.07844754     0.25800
C1618       C  0.96727490  0.35445174  0.06626165    -0.11900
C1619       C  0.96951654  0.38906918  0.06810993    -0.25800
C1620       C  0.95947052  0.39740602  0.08301840     0.36600
C1621       C  0.92111786  0.30566150  0.10518833     0.06200
F1622       F  0.94789151  0.29368942  0.07534306    -0.19600
H1623       H  0.97439350  0.34686716  0.05494276     0.16000
F1624       F  0.96177300  0.43062302  0.08556498    -0.23300
H1625       H  0.93713669  0.37764344  0.10651120     0.17800
C1626       C  0.93371717  0.28122589  0.10972049     0.25800
C1627       C  0.91170597  0.25046314  0.11940523    -0.11900
C1628       C  0.87716809  0.24387694  0.12505567    -0.25900
C1629       C  0.86545251  0.26928333  0.12128582     0.36800
C1630       C  0.88721386  0.29980167  0.11145468    -0.27500
F1631       F  0.96714694  0.28684963  0.10469965    -0.19600
H1632       H  0.92122746  0.23121528  0.12221507     0.16000
F1633       F  0.83250047  0.26403934  0.12681181    -0.23300
H1634       H  0.87678706  0.31808427  0.10820969     0.17900
C1635       C  0.63261838  0.06510388  0.09323977    -0.27400
C1636       C  0.66652431  0.06575441  0.09118803     0.06200
C1637       C  0.67152863  0.04973398  0.07725357     0.25800
C1638       C  0.64407724  0.03517733  0.06542678    -0.11900
C1639       C  0.61106461  0.03654970  0.06699956    -0.25800
C1640       C  0.60529058  0.05097130  0.08128169     0.36600
C1641       C  0.69739543  0.08551999  0.10293536     0.06200
F1642       F  0.70394010  0.05029625  0.07449523    -0.19600
H1643       H  0.64968562  0.02451309  0.05459270     0.16000
F1644       F  0.57374822  0.05237409  0.08356847    -0.23300
H1645       H  0.62762017  0.07647149  0.10399915     0.17800
C1646       C  0.70703088  0.12121424  0.10830081     0.25800
C1647       C  0.73711305  0.14061795  0.11861545    -0.11900
C1648       C  0.75907903  0.12554259  0.12357409    -0.25900
C1649       C  0.74979962  0.09000236  0.11809986     0.36800
C1650       C  0.71889603  0.07001887  0.10814711    -0.27500
F1651       F  0.68869952  0.13834176  0.10285707    -0.19600
H1652       H  0.74412651  0.16823777  0.12233297     0.16000
F1653       F  0.77141071  0.07518592  0.12182408    -0.23300
H1654       H  0.71223855  0.04264542  0.10423177     0.17900
C1655       C  0.76348875  0.95996004  0.23904121    -0.27400
C1656       C  0.76966430  0.99622467  0.23955736     0.06200
C1657       C  0.76548504  0.01030390  0.25427207     0.25800
C1658       C  0.75454105  0.98817002  0.26805402    -0.11900
C1659       C  0.74809503  0.95177360  0.26753114    -0.25800
C1660       C  0.75297508  0.93794637  0.25283904     0.36600
C1661       C  0.78141066  0.01965162  0.22489866     0.06200
F1662       F  0.77271823  0.04575812  0.25541395    -0.19600
H1663       H  0.75114651  0.99956545  0.27916912     0.16000
F1664       F  0.74619957  0.90264939  0.25158705    -0.23300
H1665       H  0.76625337  0.94841394  0.22784609     0.17800
C1666       C  0.81169304  0.02395485  0.21572722     0.25800
C1667       C  0.82591139  0.05014551  0.20339936    -0.11900
C1668       C  0.81043326  0.07262360  0.20005054    -0.25900
C1669       C  0.77857031  0.06648479  0.20840186     0.36800
C1670       C  0.76405852  0.03999549  0.22064274    -0.27500
F1671       F  0.82960228  0.00529166  0.21957129    -0.19600
H1672       H  0.85094282  0.05503851  0.19729621     0.16000
F1673       F  0.76353143  0.08833532  0.20571201    -0.23300
H1674       H  0.74029086  0.03664234  0.22734814     0.17900
C1675       C  0.39623883  0.29959456  0.11639206    -0.27400
C1676       C  0.43334724  0.32211367  0.11165723     0.06200
C1677       C  0.46117429  0.31844206  0.11959697     0.25800
C1678       C  0.45165070  0.29093720  0.13116986    -0.11900
C1679       C  0.41441028  0.26686534  0.13506166    -0.25800
C1680       C  0.38675783  0.27199411  0.12794922     0.36600
C1681       C  0.44267591  0.34710304  0.09763187     0.06200
F1682       F  0.49728532  0.33938234  0.11527940    -0.19600
H1683       H  0.47317272  0.28687872  0.13640290     0.16000
F1684       F  0.35047689  0.24855694  0.13130435    -0.23300
H1685       H  0.37443254  0.30236446  0.11063961     0.17800
C1686       C  0.42340466  0.33405965  0.08306406     0.25800
C1687       C  0.43367321  0.35719544  0.06964714    -0.11900
C1688       C  0.46361287  0.39353268  0.07040952    -0.25900
C1689       C  0.48278892  0.40660839  0.08499520     0.36800
C1690       C  0.47219929  0.38362317  0.09845940    -0.27500
F1691       F  0.39539383  0.29859278  0.08162634    -0.19600
H1692       H  0.41842567  0.34651190  0.05857846     0.16000
F1693       F  0.51106568  0.44194910  0.08642275    -0.23300
H1694       H  0.48706371  0.39443695  0.10959780     0.17900
C1695       C  0.46910646  0.11355275  0.08859724    -0.27400
C1696       C  0.43172536  0.09499165  0.09335523     0.06200
C1697       C  0.40591030  0.06480084  0.08420984     0.25800
C1698       C  0.41737604  0.05348596  0.07064914    -0.11900
C1699       C  0.45484272  0.07173165  0.06595307    -0.25800
C1700       C  0.48066827  0.10206932  0.07507990     0.36600
C1701       C  0.41959119  0.10894652  0.10713455     0.06200
F1702       F  0.36968511  0.04570146  0.08857942    -0.19600
H1703       H  0.39691525  0.02970693  0.06403393     0.16000
F1704       F  0.51695344  0.12105466  0.07082152    -0.23300
H1705       H  0.48934016  0.13746565  0.09521416     0.17800
C1706       C  0.43849073  0.11760463  0.12191150     0.25800
C1707       C  0.42995540  0.13566457  0.13392841    -0.11900
C1708       C  0.40218132  0.14481829  0.13143271    -0.25900
C1709       C  0.38180224  0.13409382  0.11709422     0.36800
C1710       C  0.39049563  0.11641504  0.10507760    -0.27500
F1711       F  0.46578643  0.10944635  0.12454997    -0.19600
H1712       H  0.44612292  0.14404245  0.14485681     0.16000
F1713       F  0.35498562  0.14290733  0.11434305    -0.23300
H1714       H  0.37571929  0.11032743  0.09380261     0.17900
C1715       C  0.27988427  0.03405604  0.21527474    -0.27400
C1716       C  0.29271286  0.03547064  0.23100450     0.06200
C1717       C  0.32023708  0.06981469  0.23710142     0.25800
C1718       C  0.33401481  0.10176592  0.22774038    -0.11900
C1719       C  0.32034007  0.10048598  0.21224699    -0.25800
C1720       C  0.29304136  0.06631424  0.20607115     0.36600
C1721       C  0.27590816  0.00192841  0.24141344     0.06200
F1722       F  0.33233321  0.07304291  0.25244615    -0.19600
H1723       H  0.35448674  0.12797642  0.23283052     0.16000
F1724       F  0.27800359  0.06439321  0.19142707    -0.23300
H1725       H  0.25897773  0.00805085  0.21022112     0.17800
C1726       C  0.23715608  0.97904688  0.24255472     0.25800
C1727       C  0.22166133  0.95094712  0.25410395    -0.11900
C1728       C  0.24435112  0.94544924  0.26490898    -0.25900
C1729       C  0.28312689  0.96670545  0.26303184     0.36800
C1730       C  0.29855778  0.99429226  0.25131270    -0.27500
F1731       F  0.21407931  0.98555624  0.23339430    -0.19600
H1732       H  0.19179439  0.93522284  0.25529234     0.16000
F1733       F  0.30631530  0.96204064  0.27295983    -0.23300
H1734       H  0.32843535  0.01069155  0.25037845     0.17900
C1735       C  0.37485035  0.30892387  0.33206549    -0.27400
C1736       C  0.39636059  0.32481440  0.34584658     0.06200
C1737       C  0.38296048  0.33859671  0.35784279     0.25800
C1738       C  0.34881790  0.33698362  0.35598275    -0.11900
C1739       C  0.32757046  0.32219161  0.34197997    -0.25800
C1740       C  0.34087014  0.30786433  0.33003803     0.36600
C1741       C  0.43307887  0.32763716  0.34755252     0.06200
F1742       F  0.40304649  0.35378979  0.37133805    -0.19600
H1743       H  0.33960443  0.34854067  0.36533860     0.16000
F1744       F  0.32122597  0.29301794  0.31641152    -0.23300
H1745       H  0.38482361  0.29806514  0.32271721     0.17800
C1746       C  0.43594104  0.29588472  0.34992837     0.25800
C1747       C  0.47077476  0.29864186  0.35095372    -0.11900
C1748       C  0.50358013  0.33309757  0.34937095    -0.25900
C1749       C  0.50047664  0.36508021  0.34741321     0.36800
C1750       C  0.46551367  0.36224740  0.34663752    -0.27500
F1751       F  0.40498265  0.26213872  0.35108673    -0.19600
H1752       H  0.47193485  0.27342265  0.35236748     0.16000
F1753       F  0.53102944  0.39895018  0.34567256    -0.23300
H1754       H  0.46370179  0.38703155  0.34485068     0.17900
C1755       C  0.97466256  0.37353131  0.30125600    -0.27400
C1756       C  0.95018727  0.36407800  0.31427515     0.06200
C1757       C  0.96197330  0.35977060  0.32950467     0.25800
C1758       C  0.99653066  0.36235133  0.33144983    -0.11900
C1759       C  0.02009278  0.36904820  0.31823690    -0.25800
C1760       C  0.00929790  0.37596619  0.30315957     0.36600
C1761       C  0.91180895  0.35700047  0.31199541     0.06200
F1762       F  0.93963339  0.35227264  0.34248407    -0.19600
H1763       H  0.00400040  0.35729053  0.34323450     0.16000
F1764       F  0.03156357  0.38386534  0.29013075    -0.23300
H1765       H  0.96631251  0.37750934  0.28946540     0.17800
C1766       C  0.90494047  0.38442373  0.30594085     0.25800
C1767       C  0.86878522  0.37866822  0.30578800    -0.11900
C1768       C  0.83868909  0.34540563  0.31160118    -0.25900
C1769       C  0.84546621  0.31694828  0.31649285     0.36800
C1770       C  0.88166324  0.32289596  0.31674462    -0.27500
F1771       F  0.93339509  0.41765100  0.30117814    -0.19600
H1772       H  0.86470585  0.40114758  0.30186618     0.16000
F1773       F  0.81758106  0.28408726  0.32190549    -0.23300
H1774       H  0.88636094  0.30112491  0.32114418     0.17900
C1775       C  0.10369344  0.41330938  0.42080681    -0.27400
C1776       C  0.06561340  0.40029913  0.42265853     0.06200
C1777       C  0.04063463  0.37187210  0.41242401     0.25800
C1778       C  0.05375719  0.35906268  0.39991048    -0.11900
C1779       C  0.09196688  0.37360466  0.39755008    -0.25800
C1780       C  0.11677670  0.39985359  0.40860076     0.36600
C1781       C  0.05269511  0.41890330  0.43418334     0.06200
F1782       F  0.00350591  0.35695445  0.41428958    -0.19600
H1783       H  0.03398374  0.33846226  0.39177701     0.16000
F1784       F  0.15397032  0.41466753  0.40699973    -0.23300
H1785       H  0.12372446  0.43546732  0.42827920     0.17800
C1786       C  0.06839156  0.42978032  0.44959755     0.25800
C1787       C  0.05851739  0.45055705  0.45954937    -0.11900
C1788       C  0.03238026  0.46033106  0.45449950    -0.25900
C1789       C  0.01612846  0.44886462  0.43929334     0.36800
C1790       C  0.02633418  0.42860085  0.42925816    -0.27500
F1791       F  0.09339194  0.42051146  0.45505468    -0.19600
H1792       H  0.07171382  0.45956016  0.47113965     0.16000
F1793       F  0.99089145  0.45799385  0.43400418    -0.23300
H1794       H  0.01445511  0.42161382  0.41736051     0.17900
C1795       C  0.29060414  0.42209135  0.42650090    -0.27400
C1796       C  0.32753028  0.43062659  0.42452451     0.06200
C1797       C  0.34034069  0.42909081  0.40908827     0.25800
C1798       C  0.31644578  0.41886820  0.39597355    -0.11900
C1799       C  0.27953911  0.41046176  0.39794083    -0.25800
C1800       C  0.26680157  0.41226951  0.41334782     0.36600
C1801       C  0.35299401  0.44271150  0.43842429     0.06200
F1802       F  0.37615633  0.43827395  0.40660407    -0.19600
H1803       H  0.32684614  0.41753915  0.38422721     0.16000
F1804       F  0.23097270  0.40299215  0.41583174    -0.23300
H1805       H  0.28006077  0.42266451  0.43830754     0.17800
C1806       C  0.35624735  0.47134070  0.44839918     0.25800
C1807       C  0.38338981  0.48578043  0.46026594    -0.11900
C1808       C  0.40784089  0.47215821  0.46232691    -0.25900
C1809       C  0.40349233  0.44231467  0.45295006     0.36800
C1810       C  0.37601939  0.42752458  0.44116212    -0.27500
F1811       F  0.33521713  0.48737055  0.44585129    -0.19600
H1812       H  0.38697485  0.50930963  0.46718891     0.16000
F1813       F  0.42746246  0.42933529  0.45441392    -0.23300
H1814       H  0.37367106  0.40516933  0.43373427     0.17900
C1815       C  0.98707490  0.21678283  0.20921821    -0.27400
C1816       C  0.98109443  0.22776556  0.22433491     0.06200
C1817       C  0.94570696  0.22203324  0.22815134     0.25800
C1818       C  0.91670388  0.20474781  0.21721567    -0.11900
C1819       C  0.92238363  0.19291379  0.20229570    -0.25800
C1820       C  0.95788204  0.19940162  0.19824598     0.36600
C1821       C  0.01122601  0.24441243  0.23634308     0.06200
F1822       F  0.93868459  0.23129956  0.24281285    -0.19600
H1823       H  0.88926079  0.19909890  0.22064536     0.16000
F1824       F  0.96378745  0.18736456  0.18403592    -0.23300
H1825       H  0.01418826  0.22113085  0.20604400     0.17800
C1826       C  0.02998049  0.22597341  0.24144937     0.25800
C1827       C  0.05608442  0.24071770  0.25384789    -0.11900
C1828       C  0.06358926  0.27383355  0.26141599    -0.25900
C1829       C  0.04556970  0.29275620  0.25588433     0.36800
C1830       C  0.01974975  0.27812267  0.24349640    -0.27500
F1831       F  0.02186516  0.19294873  0.23495862    -0.19600
H1832       H  0.06965688  0.22572096  0.25782898     0.16000
F1833       F  0.05311870  0.32568591  0.26231206    -0.23300
H1834       H  0.00601114  0.29300354  0.23956119     0.17900
C1835       C  0.28442055  0.24807983  0.21565906    -0.27400
C1836       C  0.29762929  0.25964402  0.23129020     0.06200
C1837       C  0.32349633  0.25083630  0.23777168     0.25800
C1838       C  0.33595288  0.23104417  0.22870872    -0.11900
C1839       C  0.32265265  0.21939306  0.21312352    -0.25800
C1840       C  0.29665155  0.22795333  0.20665311     0.36600
C1841       C  0.28216067  0.27809555  0.24126518     0.06200
F1842       F  0.33519892  0.25957501  0.25316313    -0.19600
H1843       H  0.35534920  0.22393245  0.23399693     0.16000
F1844       F  0.28221041  0.21577399  0.19184904    -0.23300
H1845       H  0.26410832  0.25411210  0.21054077     0.17800
C1846       C  0.30543195  0.31041624  0.24991022     0.25800
C1847       C  0.29042310  0.32434213  0.26104601    -0.11900
C1848       C  0.25197139  0.30658394  0.26360561    -0.25900
C1849       C  0.22855760  0.27571527  0.25411843     0.36800
C1850       C  0.24363721  0.26168530  0.24307963    -0.27500
F1851       F  0.34272965  0.32795667  0.24788714    -0.19600
H1852       H  0.30900201  0.34827525  0.26810387     0.16000
F1853       F  0.19130769  0.25715762  0.25640901    -0.23300
H1854       H  0.22522346  0.23670919  0.23656581     0.17900
loop_ 
_geom_bond_atom_site_label_1 
_geom_bond_atom_site_label_2 
_geom_bond_distance 
_geom_bond_site_symmetry_2 
_ccdc_geom_bond_type 
O1           Mg3   2.146       .  S
O1           Mg9   2.163       .  S
O1           C36   1.236       .  S
C2           O15   1.234       .  S
C2           O39   1.268       .  A
C2           H41   1.081       .  S
Mg3          O32   2.159       .  S
Mg3          O47   2.318       .  S
Mg3          O43   2.280       .  S
Mg3          O14   2.302       .  S
O4          Mg46   2.164       .  S
O4          Mg29   2.150       .  S
O4           C25   1.235       .  S
O5           C36   1.270       .  A
O5          Mg29   2.295       .  S
C6            O8   1.271       .  A
C6           O20   1.270       .  A
C6         C1799   1.475       .  S
O7           C35   1.269       .  A
O7           Mg9   2.292       .  S
O8          Mg40   2.268       .  S
Mg9          O15   2.147       .  S
Mg9          O23   2.270       .  S
Mg9          O11   2.281       .  S
C10          O48   1.270       .  A
C10          O16   1.277       .  A
C10        C1739   1.488       .  S
O11          C18   1.273       .  A
H12          C25   1.082       .  S
C13          O27   1.236       .  S
C13          O28   1.271       .  A
C13          H38   1.080       .  S
O14          C37   1.270       .  A
O15         Mg29   2.166       .  S
O16         Mg46   2.332       .  S
C17          O30   1.272       .  A
C17          O22   1.277       .  A
C17        C1848   1.478       .  S
C18          O45   1.274       .  A
C18        C1828   1.482       .  S
Mg19         O26   2.148       .  S
Mg19         O27   2.150       .  S
Mg19         O20   2.274       .  S
Mg19         O21   2.295       .  S
Mg19         O48   2.249       .  S
O21          C25   1.269       .  A
O22         Mg29   2.307       .  S
O23          C42   1.273       .  A
O24          C44   1.275       .  A
O24         Mg40   2.299       .  S
O26         Mg40   2.151       .  S
O26          C37   1.235       .  S
O27         Mg46   2.142       .  S
O28         Mg40   2.305       .  S
Mg29         O45   2.285       .  S
O30         Mg46   2.247       .  S
H31          C36   1.081       .  S
O32         Mg40   2.140       .  S
O32          C35   1.235       .  S
H33          C35   1.081       .  S
H34          C37   1.081       .  S
O39         Mg46   2.296       .  S
C42          O47   1.278       .  A
C42        C1759   1.491       .  S
O43          C44   1.275       .  A
C44        C1779   1.487       .  S
C49        C1719   1.486       .  S
C49          C50   1.400       .  A
C49          C54   1.418       .  A
C50          H69   1.085       .  S
C50          C51   1.397       .  A
C51        C1839   1.483       .  S
C51          C52   1.414       .  A
C52          C53   1.421       .  A
C52          C59   1.407       .  A
C53          C54   1.421       .  A
C53          C58   1.421       .  A
C54          C55   1.407       .  A
C55          H65   1.081       .  S
C55          C56   1.394       .  A
C56          H66   1.082       .  S
C56          C57   1.404       .  A
C57          C58   1.422       .  A
C57          C64   1.415       .  A
C58          C61   1.421       .  A
C59          H67   1.082       .  S
C59          C60   1.391       .  A
C60          H68   1.083       .  S
C60          C61   1.403       .  A
C61          C62   1.411       .  A
C62        C1679   1.478       .  S
C62          C63   1.394       .  A
C63          H70   1.086       .  S
C63          C64   1.396       .  A
C64        C1708   1.482       .  S
C71        C1668   1.483       .  S
C71          C72   1.396       .  A
C71          C76   1.417       .  A
C72          H91   1.086       .  S
C72          C73   1.392       .  A
C73        C1819   1.480       .  S
C73          C74   1.413       .  A
C74          C75   1.423       .  A
C74          C81   1.403       .  A
C75          C76   1.422       .  A
C75          C80   1.424       .  A
C76          C77   1.404       .  A
C77          H87   1.082       .  S
C77          C78   1.396       .  A
C78          H88   1.081       .  S
C78          C79   1.408       .  A
C79          C80   1.424       .  A
C79          C86   1.423       .  A
C80          C83   1.421       .  A
C81          H89   1.083       .  S
C81          C82   1.392       .  A
C82          H90   1.082       .  S
C82          C83   1.407       .  A
C83          C84   1.415       .  A
C84        C1628   1.489       .  S
C84          C85   1.400       .  A
C85          H92   1.085       .  S
C85          C86   1.404       .  A
C86        C1648   1.498       .  S
O93         Mg95   2.143       .  S
O93        Mg101   2.140       .  S
O93         C128   1.234       .  S
C94         O107   1.235       .  S
C94         O131   1.269       .  A
C94         H133   1.081       .  S
Mg95        O124   2.161       .  S
Mg95        O139   2.285       .  S
Mg95        O135   2.233       .  S
Mg95        O106   2.283       .  S
O96        Mg138   2.149       .  S
O96        Mg121   2.136       .  S
O96         C117   1.236       .  S
O97         C128   1.269       .  A
O97        Mg121   2.302       .  S
C98         O100   1.278       .  A
C98         O112   1.273       .  A
C98        C1599   1.488       .  S
O99         C127   1.273       .  A
O99        Mg101   2.312       .  S
O100       Mg132   2.308       .  S
Mg101       O107   2.151       .  S
Mg101       O115   2.288       .  S
Mg101       O103   2.299       .  S
C102        O140   1.270       .  A
C102        O108   1.270       .  A
C102       C1548   1.480       .  S
O103        C110   1.276       .  A
H104        C117   1.082       .  S
C105        O119   1.234       .  S
C105        O120   1.268       .  A
C105        H130   1.080       .  S
O106        C129   1.267       .  A
O107       Mg121   2.168       .  S
O108       Mg138   2.266       .  S
C109        O122   1.270       .  A
C109        O114   1.279       .  A
C109       C1568   1.495       .  S
C110        O137   1.274       .  A
C110       C1579   1.481       .  S
Mg111       O118   2.127       .  S
Mg111       O119   2.160       .  S
Mg111       O112   2.279       .  S
Mg111       O113   2.296       .  S
Mg111       O140   2.258       .  S
O113        C117   1.270       .  A
O114       Mg121   2.343       .  S
O115        C134   1.273       .  A
O116        C136   1.279       .  A
O116       Mg132   2.329       .  S
O118       Mg132   2.167       .  S
O118        C129   1.234       .  S
O119       Mg138   2.143       .  S
O120       Mg132   2.296       .  S
Mg121       O137   2.256       .  S
O122       Mg138   2.250       .  S
H123        C128   1.080       .  S
O124       Mg132   2.163       .  S
O124        C127   1.238       .  S
H125        C127   1.082       .  S
H126        C129   1.081       .  S
O131       Mg138   2.295       .  S
C134        O139   1.271       .  A
C134       C1519   1.486   1_565  S
O135        C136   1.269       .  A
C136       C1728   1.484       .  S
O141       Mg143   2.147       .  S
O141       Mg149   2.167       .  S
O141        C176   1.234       .  S
C142        O155   1.235       .  S
C142        O179   1.270       .  A
C142        H181   1.081       .  S
Mg143       O172   2.157       .  S
Mg143       O187   2.257       .  S
Mg143       O183   2.272       .  S
Mg143       O154   2.290       .  S
O144       Mg186   2.150       .  S
O144       Mg169   2.158       .  S
O144        C165   1.236       .  S
O145        C176   1.268       .  A
O145       Mg169   2.293       .  S
C146        O148   1.270       .  A
C146        O160   1.279       .  A
C146       C1659   1.484       .  S
O147        C175   1.269       .  A
O147       Mg149   2.293       .  S
O148       Mg180   2.245       .  S
Mg149       O155   2.148       .  S
Mg149       O163   2.287       .  S
Mg149       O151   2.298       .  S
C150        O188   1.272       .  A
C150        O156   1.273       .  A
C150       C1419   1.481       .  S
O151        C158   1.277       .  A
H152        C165   1.082       .  S
C153        O167   1.235       .  S
C153        O168   1.270       .  A
C153        H178   1.081       .  S
O154        C177   1.268       .  A
O155       Mg169   2.166       .  S
O156       Mg186   2.287       .  S
C157        O170   1.272       .  A
C157        O162   1.277       .  A
C157       C1459   1.492       .  S
C158        O185   1.274       .  A
C158       C1479   1.484       .  S
Mg159       O166   2.137       .  S
Mg159       O167   2.160       .  S
Mg159       O160   2.330       .  S
Mg159       O161   2.309       .  S
Mg159       O188   2.262       .  S
O161        C165   1.272       .  A
O162       Mg169   2.322       .  S
O163        C182   1.275       .  A
O164        C184   1.275       .  A
O164       Mg180   2.306       .  S
O166       Mg180   2.154       .  S
O166        C177   1.235       .  S
O167       Mg186   2.161       .  S
O168       Mg180   2.303       .  S
Mg169       O185   2.279       .  S
O170       Mg186   2.271       .  S
H171        C176   1.081       .  S
O172       Mg180   2.131       .  S
O172        C175   1.235       .  S
H173        C175   1.082       .  S
H174        C177   1.081       .  S
O179       Mg186   2.299       .  S
C182        O187   1.270       .  A
C182       C1439   1.483       .  S
O183        C184   1.272       .  A
C184       C1499   1.491       .  S
C189       C1608   1.484       .  S
C189        C190   1.397       .  A
C189        C194   1.418       .  A
C190        H209   1.086       .  S
C190        C191   1.395       .  A
C191       C1508   1.489       .  S
C191        C192   1.416       .  A
C192        C193   1.426       .  A
C192        C199   1.403       .  A
C193        C194   1.422       .  A
C193        C198   1.423       .  A
C194        C195   1.407       .  A
C195        H205   1.083       .  S
C195        C196   1.400       .  A
C196        H206   1.082       .  S
C196        C197   1.406       .  A
C197        C198   1.424       .  A
C197        C204   1.422       .  A
C198        C201   1.420       .  A
C199        H207   1.081       .  S
C199        C200   1.390       .  A
C200        H208   1.082       .  S
C200        C201   1.406       .  A
C201        C202   1.413       .  A
C202       C1399   1.483       .  S
C202        C203   1.396       .  A
C203        H210   1.085       .  S
C203        C204   1.399       .  A
C204       C1388   1.489       .  S
O211       Mg213   2.160   1_554  S
O211       Mg219   2.156   1_545  S
O211        C246   1.234       .  S
C212        O225   1.235       .  S
C212        O249   1.269       .  A
C212        H251   1.081       .  S
Mg213       O242   2.158   1_545  S
Mg213       O257   2.283   1_545  S
Mg213       O253   2.280   1_545  S
Mg213       O224   2.292       .  S
O214       Mg256   2.153   1_545  S
O214       Mg239   2.153       .  S
O214        C235   1.236       .  S
O215        C246   1.269       .  A
O215       Mg239   2.303       .  S
C216        O218   1.273       .  A
C216        O230   1.274       .  A
C216       C1368   1.483       .  S
O217        C245   1.271   1_554  A
O217       Mg219   2.304       .  S
O218       Mg250   2.269       .  S
Mg219       O225   2.155       .  S
Mg219       O233   2.290       .  S
Mg219       O221   2.310   1_565  S
C220        O258   1.269       .  A
C220        O226   1.271   1_556  A
C220       C1299   1.475       .  S
O221        C228   1.278       .  A
H222        C235   1.082       .  S
C223        O237   1.234       .  S
C223        O238   1.268       .  A
C223        H248   1.081   1_556  S
O224        C247   1.269       .  A
O225       Mg239   2.171   1_565  S
O226       Mg256   2.285   1_545  S
C227        O240   1.270       .  A
C227        O232   1.280       .  A
C227       C1639   1.494       .  S
C228        O255   1.275       .  A
C228       C1699   1.486       .  S
Mg229       O236   2.137   1_545  S
Mg229       O237   2.148   1_545  S
Mg229       O230   2.299   1_545  S
Mg229       O231   2.308       .  S
Mg229       O258   2.254       .  S
O231        C235   1.271   1_556  A
O232       Mg239   2.346       .  S
O233        C252   1.274       .  A
O234        C254   1.274       .  A
O234       Mg250   2.294       .  S
O236       Mg250   2.162       .  S
O236        C247   1.235   1_565  S
O237       Mg256   2.147   1_556  S
O238       Mg250   2.298       .  S
Mg239       O255   2.278       .  S
O240       Mg256   2.247   1_545  S
H241        C246   1.081   1_556  S
O242       Mg250   2.149       .  S
O242        C245   1.236       .  S
H243        C245   1.082       .  S
H244        C247   1.081       .  S
O249       Mg256   2.295       .  S
C252        O257   1.273   1_554  A
C252       C1328   1.488       .  S
O253        C254   1.273       .  A
C254       C1348   1.487       .  S
O259       Mg261   2.133   1_556  S
O259       Mg267   2.152       .  S
O259        C294   1.235       .  S
C260        O273   1.235       .  S
C260        O297   1.269       .  A
C260        H299   1.081       .  S
Mg261       O290   2.152       .  S
Mg261       O305   2.293       .  S
Mg261       O301   2.240       .  S
Mg261       O272   2.295       .  S
O262       Mg304   2.161       .  S
O262       Mg287   2.156       .  S
O262        C283   1.235       .  S
O263        C294   1.269       .  A
O263       Mg287   2.296       .  S
C264        O266   1.271       .  A
C264        O278   1.274       .  A
C264       C1688   1.477       .  S
O265        C293   1.268   1_556  A
O265       Mg267   2.293       .  S
O266       Mg298   2.251       .  S
Mg267       O273   2.143       .  S
Mg267       O281   2.266       .  S
Mg267       O269   2.265       .  S
C268        O306   1.271       .  A
C268        O274   1.277   1_554  A
C268       C1228   1.489       .  S
O269        C276   1.272       .  A
H270        C283   1.082       .  S
C271        O285   1.236       .  S
C271        O286   1.271       .  A
C271        H296   1.081       .  S
O272        C295   1.269       .  A
O273       Mg287   2.163       .  S
O274       Mg304   2.311       .  S
C275        O288   1.272       .  A
C275        O280   1.275       .  A
C275       C1288   1.485       .  S
C276        O303   1.273       .  A
C276       C1259   1.483       .  S
Mg277       O284   2.143       .  S
Mg277       O285   2.155       .  S
Mg277       O278   2.299       .  S
Mg277       O279   2.301       .  S
Mg277       O306   2.263       .  S
O279        C283   1.270   1_554  A
O280       Mg287   2.296       .  S
O281        C300   1.272       .  A
O282        C302   1.276       .  A
O282       Mg298   2.313       .  S
O284       Mg298   2.150       .  S
O284        C295   1.235       .  S
O285       Mg304   2.147   1_554  S
O286       Mg298   2.304       .  S
Mg287       O303   2.286       .  S
O288       Mg304   2.263       .  S
H289        C294   1.081   1_554  S
O290       Mg298   2.136       .  S
O290        C293   1.235       .  S
H291        C293   1.082       .  S
H292        C295   1.081       .  S
O297       Mg304   2.299       .  S
C300        O305   1.273   1_556  A
C300       C1239   1.484       .  S
O301        C302   1.269       .  A
C302       C1408   1.480       .  S
O307       Mg309   2.152   1_556  S
O307       Mg315   2.161   1_455  S
O307        C342   1.235       .  S
C308        O321   1.234       .  S
C308        O345   1.268       .  A
C308        H347   1.081       .  S
Mg309       O338   2.159   1_455  S
Mg309       O353   2.295   1_455  S
Mg309       O349   2.259   1_455  S
Mg309       O320   2.295       .  S
O310       Mg352   2.166   1_455  S
O310       Mg335   2.176       .  S
O310        C331   1.237       .  S
O311        C342   1.269       .  A
O311       Mg335   2.295       .  S
C312        O314   1.276       .  A
C312        O326   1.274       .  A
C312       C1379   1.490       .  S
O313        C341   1.271   1_556  A
O313       Mg315   2.300       .  S
O314       Mg346   2.297       .  S
Mg315       O321   2.139       .  S
Mg315       O329   2.266       .  S
Mg315       O317   2.292   1_655  S
C316        O354   1.269       .  A
C316        O322   1.277   1_554  A
C316       C1168   1.493       .  S
O317        C324   1.275       .  A
H318        C331   1.082       .  S
C319        O333   1.236       .  S
C319        O334   1.271       .  A
C319        H344   1.081       .  S
O320        C343   1.269       .  A
O321       Mg335   2.164   1_655  S
O322       Mg352   2.328   1_455  S
C323        O336   1.274       .  A
C323        O328   1.280       .  A
C323       C1179   1.487       .  S
C324        O351   1.280       .  A
C324       C1208   1.497       .  S
Mg325       O332   2.142       .  S
Mg325       O333   2.155   1_455  S
Mg325       O326   2.300   1_455  S
Mg325       O327   2.307       .  S
Mg325       O354   2.254       .  S
O327        C331   1.272   1_554  A
O328       Mg335   2.328       .  S
O329        C348   1.272       .  A
O330        C350   1.279       .  A
O330       Mg346   2.337       .  S
O332       Mg346   2.157   1_455  S
O332        C343   1.235       .  S
O333       Mg352   2.165   1_554  S
O334       Mg346   2.310       .  S
Mg335       O351   2.332       .  S
O336       Mg352   2.261   1_455  S
H337        C342   1.081       .  S
O338       Mg346   2.154       .  S
O338        C341   1.237       .  S
H339        C341   1.081       .  S
H340        C343   1.081       .  S
O345       Mg352   2.295       .  S
C348        O353   1.274   1_556  A
C348       C1148   1.488       .  S
O349        C350   1.273       .  A
C350       C1619   1.492       .  S
O355       Mg357   2.128       .  S
O355       Mg363   2.159       .  S
O355        C390   1.234       .  S
C356        O369   1.235       .  S
C356        O393   1.268       .  A
C356        H395   1.081       .  S
Mg357       O386   2.155       .  S
Mg357       O401   2.271       .  S
Mg357       O397   2.240       .  S
Mg357       O368   2.292       .  S
O358       Mg400   2.151       .  S
O358       Mg383   2.137       .  S
O358        C379   1.236       .  S
O359        C390   1.267       .  A
O359       Mg383   2.289       .  S
C360        O362   1.270       .  A
C360        O374   1.276       .  A
C360       C1128   1.480       .  S
O361        C389   1.269       .  A
O361       Mg363   2.292       .  S
O362       Mg394   2.243       .  S
Mg363       O369   2.143       .  S
Mg363       O377   2.277       .  S
Mg363       O365   2.277       .  S
C364        O402   1.272       .  A
C364        O370   1.272       .  A
C364       C1028   1.479       .  S
O365        C372   1.274       .  A
H366        C379   1.081       .  S
C367        O381   1.235       .  S
C367        O382   1.270       .  A
C367        H392   1.081       .  S
O368        C391   1.268       .  A
O369       Mg383   2.170       .  S
O370       Mg400   2.277       .  S
C371        O384   1.273       .  A
C371        O376   1.276       .  A
C371       C1079   1.491       .  S
C372        O399   1.272       .  A
C372       C1068   1.472       .  S
Mg373       O380   2.141       .  S
Mg373       O381   2.157       .  S
Mg373       O374   2.307       .  S
Mg373       O375   2.300       .  S
Mg373       O402   2.263       .  S
O375        C379   1.270       .  A
O376       Mg383   2.311       .  S
O377        C396   1.273       .  A
O378        C398   1.276       .  A
O378       Mg394   2.318       .  S
O380       Mg394   2.155       .  S
O380        C391   1.234       .  S
O381       Mg400   2.154       .  S
O382       Mg394   2.305       .  S
Mg383       O399   2.253       .  S
O384       Mg400   2.272       .  S
H385        C390   1.081       .  S
O386       Mg394   2.130       .  S
O386        C389   1.235       .  S
H387        C389   1.081       .  S
H388        C391   1.081       .  S
O393       Mg400   2.292       .  S
C396        O401   1.271       .  A
C396       C1039   1.484       .  S
O397        C398   1.269       .  A
C398       C1099   1.485       .  S
C403       C1279   1.485       .  S
C403        C404   1.397       .  A
C403        C408   1.415       .  A
C404        H423   1.085       .  S
C404        C405   1.397       .  A
C405       C1199   1.493       .  S
C405        C406   1.422       .  A
C406        C407   1.426       .  A
C406        C413   1.406       .  A
C407        C408   1.421       .  A
C407        C412   1.425       .  A
C408        C409   1.406       .  A
C409        H419   1.082       .  S
C409        C410   1.392       .  A
C410        H420   1.082       .  S
C410        C411   1.404       .  A
C411        C412   1.426       .  A
C411        C418   1.418       .  A
C412        C415   1.421       .  A
C413        H421   1.083       .  S
C413        C414   1.400       .  A
C414        H422   1.083       .  S
C414        C415   1.407       .  A
C415        C416   1.417       .  A
C416        C999   1.483       .  S
C416        C417   1.397       .  A
C417        H424   1.086       .  S
C417        C418   1.397       .  A
C418       C1088   1.492       .  S
C425       C1339   1.488       .  S
C425        C426   1.399       .  A
C425        C430   1.417       .  A
C426        H445   1.085       .  S
C426        C427   1.399       .  A
C427       C1188   1.483       .  S
C427        C428   1.416       .  A
C428        C429   1.419       .  A
C428        C435   1.408       .  A
C429        C430   1.424       .  A
C429        C434   1.421       .  A
C430        C431   1.406       .  A
C431        H441   1.082       .  S
C431        C432   1.393       .  A
C432        H442   1.083       .  S
C432        C433   1.405       .  A
C433        C434   1.418       .  A
C433        C440   1.409       .  A
C434        C437   1.425       .  A
C435        H443   1.082       .  S
C435        C436   1.395       .  A
C436        H444   1.083       .  S
C436        C437   1.403       .  A
C437        C438   1.418       .  A
C438        C979   1.485       .  S
C438        C439   1.394       .  A
C439        H446   1.086       .  S
C439        C440   1.393       .  A
C440       C1059   1.470       .  S
O447       Mg449   2.164       .  S
O447       Mg455   2.165       .  S
O447        C482   1.235       .  S
C448        O461   1.234       .  S
C448        O485   1.268       .  A
C448        H487   1.081       .  S
Mg449       O478   2.150       .  S
Mg449       O493   2.264       .  S
Mg449       O489   2.279       .  S
Mg449       O460   2.295       .  S
O450       Mg492   2.160       .  S
O450       Mg475   2.159       .  S
O450        C471   1.237       .  S
O451        C482   1.270       .  A
O451       Mg475   2.302       .  S
C452        O454   1.274       .  A
C452        O466   1.277       .  A
C452        C939   1.484       .  S
O453        C481   1.271       .  A
O453       Mg455   2.301       .  S
O454       Mg486   2.261       .  S
Mg455       O461   2.141       .  S
Mg455       O469   2.269       .  S
Mg455       O457   2.305       .  S
C456        O494   1.274       .  A
C456        O462   1.272       .  A
C456        C879   1.492   1_545  S
O457        C464   1.277       .  A
H458        C471   1.082       .  S
C459        O473   1.235       .  S
C459        O474   1.270       .  A
C459        H484   1.080       .  S
O460        C483   1.269       .  A
O461       Mg475   2.167       .  S
O462       Mg492   2.284       .  S
C463        O476   1.271       .  A
C463        O468   1.280       .  A
C463        C928   1.494       .  S
C464        O491   1.276       .  A
C464       C1008   1.486       .  S
Mg465       O472   2.155       .  S
Mg465       O473   2.150       .  S
Mg465       O466   2.304       .  S
Mg465       O467   2.307       .  S
Mg465       O494   2.295       .  S
O467        C471   1.272       .  A
O468       Mg475   2.345       .  S
O469        C488   1.272       .  A
O470        C490   1.280       .  A
O470       Mg486   2.347       .  S
O472       Mg486   2.166       .  S
O472        C483   1.235       .  S
O473       Mg492   2.150       .  S
O474       Mg486   2.303       .  S
Mg475       O491   2.292       .  S
O476       Mg492   2.244       .  S
H477        C482   1.080       .  S
O478       Mg486   2.140       .  S
O478        C481   1.236       .  S
H479        C481   1.082       .  S
H480        C483   1.081       .  S
O485       Mg492   2.289       .  S
C488        O493   1.270       .  A
C488        C908   1.479       .  S
O489        C490   1.273       .  A
C490        C959   1.501       .  S
O495       Mg497   2.147       .  S
O495       Mg503   2.163       .  S
O495        C530   1.236       .  S
C496        O509   1.233       .  S
C496        O533   1.267       .  A
C496        H535   1.081       .  S
Mg497       O526   2.163       .  S
Mg497       O541   2.292       .  S
Mg497       O537   2.269       .  S
Mg497       O508   2.293       .  S
O498       Mg540   2.169       .  S
O498       Mg523   2.173       .  S
O498        C519   1.236       .  S
O499        C530   1.270       .  A
O499       Mg523   2.298       .  S
C500        O502   1.272       .  A
C500        O514   1.275       .  A
C500        C988   1.486       .  S
O501        C529   1.268       .  A
O501       Mg503   2.284       .  S
O502       Mg534   2.273       .  S
Mg503       O509   2.138       .  S
Mg503       O517   2.255       .  S
Mg503       O505   2.260       .  S
C504        O542   1.267       .  A
C504        O510   1.278       .  A
C504        C779   1.487       .  S
O505        C512   1.270       .  A
H506        C519   1.082       .  S
C507        O521   1.236       .  S
C507        O522   1.272       .  A
C507        H532   1.080       .  S
O508        C531   1.268       .  A
O509       Mg523   2.159       .  S
O510       Mg540   2.334       .  S
C511        O524   1.277       .  A
C511        O516   1.278       .  A
C511        C859   1.492       .  S
C512        O539   1.277       .  A
C512        C839   1.487       .  S
Mg513       O520   2.134       .  S
Mg513       O521   2.155       .  S
Mg513       O514   2.309       .  S
Mg513       O515   2.309       .  S
Mg513       O542   2.228       .  S
O515        C519   1.272       .  A
O516       Mg523   2.318       .  S
O517        C536   1.270       .  A
O518        C538   1.276       .  A
O518       Mg534   2.305       .  S
O520       Mg534   2.150       .  S
O520        C531   1.234       .  S
O521       Mg540   2.172       .  S
O522       Mg534   2.312       .  S
Mg523       O539   2.315       .  S
O524       Mg540   2.280       .  S
H525        C530   1.081       .  S
O526       Mg534   2.131       .  S
O526        C529   1.235       .  S
H527        C529   1.081       .  S
H528        C531   1.081       .  S
O533       Mg540   2.295       .  S
C536        O541   1.274       .  A
C536        C808   1.481       .  S
O537        C538   1.274       .  A
C538        C819   1.488       .  S
C543       C1359   1.481       .  S
C543        C544   1.393       .  A
C543        C548   1.415       .  A
C544        H563   1.086       .  S
C544        C545   1.393       .  A
C545       C1268   1.480       .  S
C545        C546   1.413       .  A
C546        C547   1.423       .  A
C546        C553   1.402       .  A
C547        C548   1.422       .  A
C547        C552   1.423       .  A
C548        C549   1.403       .  A
C549        H559   1.082       .  S
C549        C550   1.394       .  A
C550        H560   1.081       .  S
C550        C551   1.408       .  A
C551        C552   1.424       .  A
C551        C558   1.420       .  A
C552        C555   1.421       .  A
C553        H561   1.082       .  S
C553        C554   1.393       .  A
C554        H562   1.081       .  S
C554        C555   1.409       .  A
C555        C556   1.416       .  A
C556        C828   1.488       .  S
C556        C557   1.401       .  A
C557        H564   1.085       .  S
C557        C558   1.402       .  A
C558        C919   1.495       .  S
C565       C1788   1.490       .  S
C565        C566   1.402       .  A
C565        C570   1.420       .  A
C566        H585   1.085       .  S
C566        C567   1.401       .  A
C567       C1559   1.499       .  S
C567        C568   1.421       .  A
C568        C569   1.426       .  A
C568        C575   1.404       .  A
C569        C570   1.420       .  A
C569        C574   1.428   1_455  A
C570        C571   1.409   1_455  A
C571        H581   1.081   1_655  S
C571        C572   1.396       .  A
C572        H582   1.082       .  S
C572        C573   1.404       .  A
C573        C574   1.427       .  A
C573        C580   1.423       .  A
C574        C577   1.421       .  A
C575        H583   1.081       .  S
C575        C576   1.391   1_455  A
C576        H584   1.081       .  S
C576        C577   1.406       .  A
C577        C578   1.418       .  A
C578        C868   1.491       .  S
C578        C579   1.400       .  A
C579        H586   1.085       .  S
C579        C580   1.402       .  A
C580        C968   1.500       .  S
C587       C1488   1.480       .  S
C587        C588   1.395       .  A
C587        C592   1.414       .  A
C588        H607   1.086       .  S
C588        C589   1.394       .  A
C589       C1808   1.478       .  S
C589        C590   1.412       .  A
C590        C591   1.422       .  A
C590        C597   1.404       .  A
C591        C592   1.422       .  A
C591        C596   1.419       .  A
C592        C593   1.405       .  A
C593        H603   1.082       .  S
C593        C594   1.396       .  A
C594        H604   1.082       .  S
C594        C595   1.405       .  A
C595        C596   1.422       .  A
C595        C602   1.415       .  A
C596        C599   1.421       .  A
C597        H605   1.082       .  S
C597        C598   1.392       .  A
C598        H606   1.082       .  S
C598        C599   1.405       .  A
C599        C600   1.411       .  A
C600       C1119   1.478       .  S
C600        C601   1.395       .  A
C601        H608   1.086       .  S
C601        C602   1.395       .  A
C602        C848   1.481       .  S
C609       C1588   1.482       .  S
C609        C610   1.397       .  A
C609        C614   1.414       .  A
C610        H629   1.085       .  S
C610        C611   1.397       .  A
C611       C1468   1.490       .  S
C611        C612   1.418       .  A
C612        C613   1.425       .  A
C612        C619   1.404       .  A
C613        C614   1.419       .  A
C613        C618   1.421   1_565  A
C614        C615   1.407       .  A
C615        H625   1.082       .  S
C615        C616   1.392       .  A
C616        H626   1.082       .  S
C616        C617   1.403   1_565  A
C617        C618   1.424       .  A
C617        C624   1.416       .  A
C618        C621   1.419       .  A
C619        H627   1.082       .  S
C619        C620   1.394   1_565  A
C620        H628   1.082       .  S
C620        C621   1.407       .  A
C621        C622   1.414       .  A
C622        C948   1.479       .  S
C622        C623   1.396       .  A
C623        H630   1.086       .  S
C623        C624   1.396       .  A
C624       C1108   1.487       .  S
O631       Mg633   2.143   1_655  S
O631       Mg639   2.153   1_554  S
O631        C666   1.236       .  S
C632        O645   1.233       .  S
C632        O669   1.267       .  A
C632        H671   1.080       .  S
Mg633       O662   2.165   1_554  S
Mg633       O677   2.320   1_554  S
Mg633       O673   2.262       .  S
Mg633       O644   2.296       .  S
O634       Mg676   2.163   1_554  S
O634       Mg659   2.146       .  S
O634        C655   1.235       .  S
O635        C666   1.270   1_565  A
O635       Mg659   2.300       .  S
C636        O638   1.276       .  A
C636        O650   1.270   1_546  A
C636       C1319   1.483       .  S
O637        C665   1.270       .  A
O637       Mg639   2.294   1_455  S
O638       Mg670   2.306       .  S
Mg639       O645   2.140   1_545  S
Mg639       O653   2.254       .  S
Mg639       O641   2.264       .  S
C640        O678   1.270       .  A
C640        O646   1.275   1_455  A
C640       C1159   1.492       .  S
O641        C648   1.271   1_546  A
H642        C655   1.081       .  S
C643        O657   1.237       .  S
C643        O658   1.272   1_565  A
C643        H668   1.081       .  S
O644        C667   1.269       .  A
O645       Mg659   2.161   1_556  S
O646       Mg676   2.312   1_554  S
C647        O660   1.272       .  A
C647        O652   1.277       .  A
C647       C1248   1.485       .  S
C648        O675   1.273       .  A
C648       C1308   1.482       .  S
Mg649       O656   2.146   1_565  S
Mg649       O657   2.155   1_554  S
Mg649       O650   2.259       .  S
Mg649       O651   2.293   1_455  S
Mg649       O678   2.264       .  S
O651        C655   1.269       .  A
O652       Mg659   2.312   1_556  S
O653        C672   1.270       .  A
O654        C674   1.280       .  A
O654       Mg670   2.325   1_554  S
O656       Mg670   2.156   1_554  S
O656        C667   1.234       .  S
O657       Mg676   2.147   1_455  S
O658       Mg670   2.308       .  S
Mg659       O675   2.281       .  S
O660       Mg676   2.252       .  S
H661        C666   1.081       .  S
O662       Mg670   2.152       .  S
O662        C665   1.236       .  S
H663        C665   1.081       .  S
H664        C667   1.080       .  S
O669       Mg676   2.295       .  S
C672        O677   1.277   1_655  A
C672       C1139   1.490       .  S
O673        C674   1.273       .  A
C674       C1219   1.489       .  S
O679       Mg681   2.150       .  S
O679       Mg687   2.161       .  S
O679        C714   1.234       .  S
C680        O693   1.237       .  S
C680        O717   1.272       .  A
C680        H719   1.081       .  S
Mg681       O710   2.160       .  S
Mg681       O725   2.268       .  S
Mg681       O721   2.274       .  S
Mg681       O692   2.288       .  S
O682       Mg724   2.154       .  S
O682       Mg707   2.152       .  S
O682        C703   1.236       .  S
O683        C714   1.269       .  A
O683       Mg707   2.299       .  S
C684        O686   1.270       .  A
C684        O698   1.280       .  A
C684       C1768   1.493       .  S
O685        C713   1.269       .  A
O685       Mg687   2.297       .  S
O686       Mg718   2.245       .  S
Mg687       O693   2.155       .  S
Mg687       O701   2.282       .  S
Mg687       O689   2.326       .  S
C688        O726   1.273       .  A
C688        O694   1.275       .  A
C688       C1428   1.479       .  S
O689        C696   1.278       .  A
H690        C703   1.080       .  S
C691        O705   1.234       .  S
C691        O706   1.267       .  A
C691        H716   1.081       .  S
O692        C715   1.269       .  A
O693       Mg707   2.155       .  S
O694       Mg724   2.291       .  S
C695        O708   1.272       .  A
C695        O700   1.272       .  A
C695       C1528   1.487       .  S
C696        O723   1.271       .  A
C696       C1748   1.492       .  S
Mg697       O704   2.128       .  S
Mg697       O705   2.158       .  S
Mg697       O698   2.342       .  S
Mg697       O699   2.308       .  S
Mg697       O726   2.259       .  S
O699        C703   1.271       .  A
O700       Mg707   2.288       .  S
O701        C720   1.275       .  A
O702        C722   1.269       .  A
O702       Mg718   2.263       .  S
O704       Mg718   2.157       .  S
O704        C715   1.236       .  S
O705       Mg724   2.147       .  S
O706       Mg718   2.289       .  S
Mg707       O723   2.253       .  S
O708       Mg724   2.280       .  S
H709        C714   1.081       .  S
O710       Mg718   2.136       .  S
O710        C713   1.234       .  S
H711        C713   1.080       .  S
H712        C715   1.081       .  S
O717       Mg724   2.307       .  S
C720        O725   1.271       .  A
C720       C1448   1.480       .  S
O721        C722   1.272       .  A
C722       C1539   1.482       .  S
O727       Mg729   2.126       .  S
O727       Mg735   2.159       .  S
O727        C762   1.234       .  S
C728        O741   1.237       .  S
C728        O765   1.271       .  A
C728        H767   1.080       .  S
Mg729       O758   2.150       .  S
Mg729       O773   2.264       .  S
Mg729       O769   2.236       .  S
Mg729       O740   2.293       .  S
O730       Mg772   2.148       .  S
O730       Mg755   2.141       .  S
O730        C751   1.236       .  S
O731        C762   1.267       .  A
O731       Mg755   2.291       .  S
C732        O734   1.268       .  A
C732        O746   1.279       .  A
C732       C1019   1.482       .  S
O733        C761   1.268       .  A
O733       Mg735   2.294       .  S
O734       Mg766   2.223       .  S
Mg735       O741   2.154       .  S
Mg735       O749   2.297       .  S
Mg735       O737   2.301       .  S
C736        O774   1.275       .  A
C736        O742   1.273       .  A
C736        C799   1.479       .  S
O737        C744   1.276       .  A
H738        C751   1.080       .  S
C739        O753   1.234       .  S
C739        O754   1.268       .  A
C739        H764   1.081       .  S
O740        C763   1.269       .  A
O741       Mg755   2.166       .  S
O742       Mg772   2.281       .  S
C743        O756   1.271       .  A
C743        O748   1.276       .  A
C743        C888   1.491       .  S
C744        O771   1.272       .  A
C744       C1048   1.480       .  S
Mg745       O752   2.142       .  S
Mg745       O753   2.155       .  S
Mg745       O746   2.322       .  S
Mg745       O747   2.303       .  S
Mg745       O774   2.281       .  S
O747        C751   1.271       .  A
O748       Mg755   2.311       .  S
O749        C768   1.276       .  A
O750        C770   1.273       .  A
O750       Mg766   2.296       .  S
O752       Mg766   2.159       .  S
O752        C763   1.236       .  S
O753       Mg772   2.140       .  S
O754       Mg766   2.293       .  S
Mg755       O771   2.247       .  S
O756       Mg772   2.265       .  S
H757        C762   1.081       .  S
O758       Mg766   2.128       .  S
O758        C761   1.235       .  S
H759        C761   1.080       .  S
H760        C763   1.081       .  S
O765       Mg772   2.299       .  S
C768        O773   1.270       .  A
C768        C788   1.487       .  S
O769        C770   1.268       .  A
C770        C899   1.481       .  S
C775        H785   1.083       .  S
C775        C776   1.400       .  A
C775        C780   1.397       .  A
C776        C781   1.482       .  S
C776        C777   1.408       .  A
C777        C778   1.401       .  A
C777        F782   1.357       .  S
C778        H783   1.083   1_455  S
C778        C779   1.405   1_455  A
C779        C780   1.415   1_655  A
C780        F784   1.358   1_455  S
C781        C786   1.408       .  A
C781        C790   1.400       .  A
C786        C787   1.401       .  A
C786        F791   1.357       .  S
C787        H792   1.083       .  S
C787        C788   1.406       .  A
C788        C789   1.415       .  A
C789        C790   1.395       .  A
C789        F793   1.358       .  S
C790        H794   1.084       .  S
C795        H805   1.083       .  S
C795        C796   1.401       .  A
C795        C800   1.398       .  A
C796        C801   1.477       .  S
C796        C797   1.406       .  A
C797        C798   1.397       .  A
C797        F802   1.358       .  S
C798        H803   1.083       .  S
C798        C799   1.404       .  A
C799        C800   1.411       .  A
C800        F804   1.358       .  S
C801        C806   1.404       .  A
C801        C810   1.401       .  A
C806        C807   1.400       .  A
C806        F811   1.357       .  S
C807        H812   1.083       .  S
C807        C808   1.408       .  A
C808        C809   1.410       .  A
C809        C810   1.395       .  A
C809        F813   1.358       .  S
C810        H814   1.084       .  S
C815        H825   1.083       .  S
C815        C816   1.405       .  A
C815        C820   1.398       .  A
C816        C821   1.491       .  S
C816        C817   1.409       .  A
C817        C818   1.401       .  A
C817        F822   1.357       .  S
C818        H823   1.083       .  S
C818        C819   1.407       .  A
C819        C820   1.411       .  A
C820        F824   1.358       .  S
C821        C826   1.411       .  A
C821        C830   1.406       .  A
C826        C827   1.402       .  A
C826        F831   1.357       .  S
C827        H832   1.083       .  S
C827        C828   1.404       .  A
C828        C829   1.404       .  A
C829        C830   1.397       .  A
C829        F833   1.358       .  S
C830        H834   1.083       .  S
C835        H845   1.084       .  S
C835        C836   1.399       .  A
C835        C840   1.394       .  A
C836        C841   1.484       .  S
C836        C837   1.409       .  A
C837        C838   1.405       .  A
C837        F842   1.357       .  S
C838        H843   1.083       .  S
C838        C839   1.405       .  A
C839        C840   1.414       .  A
C840        F844   1.358       .  S
C841        C846   1.407       .  A
C841        C850   1.406       .  A
C846        C847   1.395       .  A
C846        F851   1.358       .  S
C847        H852   1.084       .  S
C847        C848   1.403       .  A
C848        C849   1.404       .  A
C849        C850   1.402       .  A
C849        F853   1.357       .  S
C850        H854   1.083       .  S
C855        H865   1.083       .  S
C855        C856   1.407       .  A
C855        C860   1.403       .  A
C856        C861   1.494       .  S
C856        C857   1.409       .  A
C857        C858   1.398       .  A
C857        F862   1.357       .  S
C858        H863   1.083       .  S
C858        C859   1.406       .  A
C859        C860   1.412       .  A
C860        F864   1.358       .  S
C861        C866   1.411       .  A
C861        C870   1.408       .  A
C866        C867   1.399       .  A
C866        F871   1.357       .  S
C867        H872   1.084       .  S
C867        C868   1.404       .  A
C868        C869   1.406       .  A
C869        C870   1.400       .  A
C869        F873   1.357   1_655  S
C870        H874   1.083       .  S
C875        H885   1.083       .  S
C875        C876   1.406       .  A
C875        C880   1.402       .  A
C876        C881   1.487       .  S
C876        C877   1.404       .  A
C877        C878   1.400       .  A
C877        F882   1.358       .  S
C878        H883   1.083       .  S
C878        C879   1.411       .  A
C879        C880   1.410       .  A
C880        F884   1.357       .  S
C881        C886   1.406       .  A
C881        C890   1.404       .  A
C886        C887   1.399       .  A
C886        F891   1.358       .  S
C887        H892   1.083       .  S
C887        C888   1.408       .  A
C888        C889   1.412       .  A
C889        C890   1.402       .  A
C889        F893   1.357       .  S
C890        H894   1.083       .  S
C895        H905   1.083       .  S
C895        C896   1.402       .  A
C895        C900   1.396       .  A
C896        C901   1.477       .  S
C896        C897   1.405       .  A
C897        C898   1.396       .  A
C897        F902   1.358       .  S
C898        H903   1.083       .  S
C898        C899   1.407       .  A
C899        C900   1.411       .  A
C900        F904   1.357       .  S
C901        C906   1.407       .  A
C901        C910   1.401       .  A
C906        C907   1.397       .  A
C906        F911   1.358       .  S
C907        H912   1.083       .  S
C907        C908   1.405   1_455  A
C908        C909   1.412       .  A
C909        C910   1.394   1_655  A
C909        F913   1.358       .  S
C910        H914   1.083       .  S
C915        H925   1.082       .  S
C915        C916   1.410       .  A
C915        C920   1.403       .  A
C916        C921   1.498   1_565  S
C916        C917   1.410       .  A
C917        C918   1.399       .  A
C917        F922   1.357       .  S
C918        H923   1.083       .  S
C918        C919   1.405       .  A
C919        C920   1.407       .  A
C920        F924   1.358       .  S
C921        C926   1.408   1_545  A
C921        C930   1.410       .  A
C926        C927   1.398   1_565  A
C926        F931   1.357       .  S
C927        H932   1.083       .  S
C927        C928   1.409       .  A
C928        C929   1.409       .  A
C929        C930   1.405       .  A
C929        F933   1.357       .  S
C930        H934   1.083       .  S
C935        H945   1.083       .  S
C935        C936   1.404       .  A
C935        C940   1.397       .  A
C936        C941   1.485       .  S
C936        C937   1.408       .  A
C937        C938   1.396       .  A
C937        F942   1.358       .  S
C938        H943   1.083       .  S
C938        C939   1.406       .  A
C939        C940   1.410       .  A
C940        F944   1.357       .  S
C941        C946   1.408       .  A
C941        C950   1.407       .  A
C946        C947   1.396       .  A
C946        F951   1.357       .  S
C947        H952   1.084       .  S
C947        C948   1.403       .  A
C948        C949   1.403       .  A
C949        C950   1.397       .  A
C949        F953   1.358   1_545  S
C950        H954   1.083       .  S
C955        H965   1.083       .  S
C955        C956   1.409       .  A
C955        C960   1.406       .  A
C956        C961   1.504       .  S
C956        C957   1.410       .  A
C957        C958   1.404       .  A
C957        F962   1.357       .  S
C958        H963   1.083       .  S
C958        C959   1.410       .  A
C959        C960   1.411       .  A
C960        F964   1.357       .  S
C961        C966   1.414       .  A
C961        C970   1.407       .  A
C966        C967   1.408       .  A
C966        F971   1.357       .  S
C967        H972   1.083   1_655  S
C967        C968   1.406       .  A
C968        C969   1.408       .  A
C969        C970   1.401       .  A
C969        F973   1.358       .  S
C970        H974   1.083       .  S
C975        H985   1.083       .  S
C975        C976   1.405       .  A
C975        C980   1.399       .  A
C976        C981   1.491   1_455  S
C976        C977   1.411       .  A
C977        C978   1.402       .  A
C977        F982   1.357       .  S
C978        H983   1.083       .  S
C978        C979   1.402       .  A
C979        C980   1.406       .  A
C980        F984   1.358       .  S
C981        C986   1.408       .  A
C981        C990   1.406   1_655  A
C986        C987   1.401       .  A
C986        F991   1.357       .  S
C987        H992   1.083       .  S
C987        C988   1.407       .  A
C988        C989   1.409       .  A
C989        C990   1.400   1_655  A
C989        F993   1.357       .  S
C990        H994   1.083       .  S
C995       H1005   1.083       .  S
C995        C996   1.410       .  A
C995       C1000   1.404       .  A
C996       C1001   1.495       .  S
C996        C997   1.410       .  A
C997        C998   1.397       .  A
C997       F1002   1.357       .  S
C998       H1003   1.084       .  S
C998        C999   1.402       .  A
C999       C1000   1.404       .  A
C1000      F1004   1.357       .  S
C1001      C1006   1.412   1_455  A
C1001      C1010   1.405   1_455  A
C1006      C1007   1.404       .  A
C1006      F1011   1.357   1_655  S
C1007      H1012   1.083       .  S
C1007      C1008   1.405       .  A
C1008      C1009   1.410       .  A
C1009      C1010   1.398       .  A
C1009      F1013   1.358       .  S
C1010      H1014   1.083   1_655  S
C1015      H1025   1.083       .  S
C1015      C1016   1.401       .  A
C1015      C1020   1.396       .  A
C1016      C1021   1.477       .  S
C1016      C1017   1.406       .  A
C1017      C1018   1.395       .  A
C1017      F1022   1.358       .  S
C1018      H1023   1.083       .  S
C1018      C1019   1.405       .  A
C1019      C1020   1.413       .  A
C1020      F1024   1.358       .  S
C1021      C1026   1.404       .  A
C1021      C1030   1.404       .  A
C1026      C1027   1.395       .  A
C1026      F1031   1.358       .  S
C1027      H1032   1.083       .  S
C1027      C1028   1.408       .  A
C1028      C1029   1.408       .  A
C1029      C1030   1.396       .  A
C1029      F1033   1.357       .  S
C1030      H1034   1.083       .  S
C1035      H1045   1.083       .  S
C1035      C1036   1.405       .  A
C1035      C1040   1.398       .  A
C1036      C1041   1.478       .  S
C1036      C1037   1.402       .  A
C1037      C1038   1.395       .  A
C1037      F1042   1.358       .  S
C1038      H1043   1.083   1_565  S
C1038      C1039   1.410   1_565  A
C1039      C1040   1.409   1_545  A
C1040      F1044   1.357       .  S
C1041      C1046   1.405       .  A
C1041      C1050   1.403       .  A
C1046      C1047   1.397       .  A
C1046      F1051   1.357       .  S
C1047      H1052   1.083       .  S
C1047      C1048   1.407       .  A
C1048      C1049   1.410       .  A
C1049      C1050   1.396       .  A
C1049      F1053   1.358       .  S
C1050      H1054   1.084       .  S
C1055      H1065   1.083       .  S
C1055      C1056   1.405       .  A
C1055      C1060   1.392       .  A
C1056      C1061   1.480       .  S
C1056      C1057   1.410       .  A
C1057      C1058   1.397       .  A
C1057      F1062   1.357   1_565  S
C1058      H1063   1.083       .  S
C1058      C1059   1.400       .  A
C1059      C1060   1.401       .  A
C1060      F1064   1.358       .  S
C1061      C1066   1.406   1_565  A
C1061      C1070   1.407   1_565  A
C1066      C1067   1.393       .  A
C1066      F1071   1.358   1_545  S
C1067      H1072   1.083       .  S
C1067      C1068   1.405       .  A
C1068      C1069   1.404       .  A
C1069      C1070   1.396       .  A
C1069      F1073   1.358       .  S
C1070      H1074   1.083       .  S
C1075      H1085   1.083       .  S
C1075      C1076   1.407       .  A
C1075      C1080   1.400       .  A
C1076      C1081   1.495       .  S
C1076      C1077   1.409       .  A
C1077      C1078   1.402       .  A
C1077      F1082   1.357       .  S
C1078      H1083   1.083       .  S
C1078      C1079   1.408       .  A
C1079      C1080   1.409       .  A
C1080      F1084   1.357       .  S
C1081      C1086   1.412       .  A
C1081      C1090   1.406       .  A
C1086      C1087   1.406       .  A
C1086      F1091   1.357       .  S
C1087      H1092   1.083       .  S
C1087      C1088   1.405       .  A
C1088      C1089   1.405       .  A
C1089      C1090   1.396       .  A
C1089      F1093   1.358       .  S
C1090      H1094   1.083       .  S
C1095      H1105   1.083       .  S
C1095      C1096   1.403       .  A
C1095      C1100   1.398       .  A
C1096      C1101   1.486       .  S
C1096      C1097   1.408       .  A
C1097      C1098   1.400       .  A
C1097      F1102   1.358       .  S
C1098      H1103   1.083       .  S
C1098      C1099   1.406       .  A
C1099      C1100   1.410       .  A
C1100      F1104   1.358       .  S
C1101      C1106   1.408       .  A
C1101      C1110   1.406       .  A
C1106      C1107   1.396       .  A
C1106      F1111   1.358       .  S
C1107      H1112   1.084   1_545  S
C1107      C1108   1.404       .  A
C1108      C1109   1.406       .  A
C1109      C1110   1.402       .  A
C1109      F1113   1.357       .  S
C1110      H1114   1.083       .  S
C1115      H1125   1.083       .  S
C1115      C1116   1.407       .  A
C1115      C1120   1.397       .  A
C1116      C1121   1.485       .  S
C1116      C1117   1.409       .  A
C1117      C1118   1.395       .  A
C1117      F1122   1.357       .  S
C1118      H1123   1.084       .  S
C1118      C1119   1.402       .  A
C1119      C1120   1.403       .  A
C1120      F1124   1.357       .  S
C1121      C1126   1.409       .  A
C1121      C1130   1.404       .  A
C1126      C1127   1.395       .  A
C1126      F1131   1.358       .  S
C1127      H1132   1.083       .  S
C1127      C1128   1.404       .  A
C1128      C1129   1.410       .  A
C1129      C1130   1.397       .  A
C1129      F1133   1.358       .  S
C1130      H1134   1.083       .  S
C1135      H1145   1.083       .  S
C1135      C1136   1.401       .  A
C1135      C1140   1.401       .  A
C1136      C1141   1.479       .  S
C1136      C1137   1.404   1_655  A
C1137      C1138   1.398       .  A
C1137      F1142   1.358   1_556  S
C1138      H1143   1.083       .  S
C1138      C1139   1.407   1_455  A
C1139      C1140   1.415       .  A
C1140      F1144   1.357       .  S
C1141      C1146   1.403       .  A
C1141      C1150   1.402   1_556  A
C1146      C1147   1.400       .  A
C1146      F1151   1.357       .  S
C1147      H1152   1.083       .  S
C1147      C1148   1.409       .  A
C1148      C1149   1.413   1_556  A
C1149      C1150   1.398       .  A
C1149      F1153   1.358       .  S
C1150      H1154   1.084       .  S
C1155      H1165   1.083       .  S
C1155      C1156   1.401       .  A
C1155      C1160   1.402       .  A
C1156      C1161   1.481       .  S
C1156      C1157   1.403   1_455  A
C1157      C1158   1.400       .  A
C1157      F1162   1.358   1_554  S
C1158      H1163   1.083       .  S
C1158      C1159   1.409   1_655  A
C1159      C1160   1.414       .  A
C1160      F1164   1.357       .  S
C1161      C1166   1.404   1_554  A
C1161      C1170   1.400       .  A
C1166      C1167   1.401       .  A
C1166      F1171   1.357       .  S
C1167      H1172   1.083       .  S
C1167      C1168   1.408   1_556  A
C1168      C1169   1.415       .  A
C1169      C1170   1.401       .  A
C1169      F1173   1.358       .  S
C1170      H1174   1.083       .  S
C1175      H1185   1.083       .  S
C1175      C1176   1.406       .  A
C1175      C1180   1.401       .  A
C1176      C1181   1.488       .  S
C1176      C1177   1.407       .  A
C1177      C1178   1.397       .  A
C1177      F1182   1.358       .  S
C1178      H1183   1.083       .  S
C1178      C1179   1.407       .  A
C1179      C1180   1.409       .  A
C1180      F1184   1.357       .  S
C1181      C1186   1.409       .  A
C1181      C1190   1.407       .  A
C1186      C1187   1.398       .  A
C1186      F1191   1.357       .  S
C1187      H1192   1.084       .  S
C1187      C1188   1.402       .  A
C1188      C1189   1.404       .  A
C1189      C1190   1.399       .  A
C1189      F1193   1.358       .  S
C1190      H1194   1.083       .  S
C1195      H1205   1.083       .  S
C1195      C1196   1.407       .  A
C1195      C1200   1.400       .  A
C1196      C1201   1.498       .  S
C1196      C1197   1.410       .  A
C1197      C1198   1.407       .  A
C1197      F1202   1.357       .  S
C1198      H1203   1.083       .  S
C1198      C1199   1.405       .  A
C1199      C1200   1.407       .  A
C1200      F1204   1.358       .  S
C1201      C1206   1.406       .  A
C1201      C1210   1.410       .  A
C1206      C1207   1.399       .  A
C1206      F1211   1.358       .  S
C1207      H1212   1.083       .  S
C1207      C1208   1.410       .  A
C1208      C1209   1.410       .  A
C1209      C1210   1.409       .  A
C1209      F1213   1.357       .  S
C1210      H1214   1.083       .  S
C1215      H1225   1.083       .  S
C1215      C1216   1.401       .  A
C1215      C1220   1.402       .  A
C1216      C1221   1.478       .  S
C1216      C1217   1.403       .  A
C1217      C1218   1.397       .  A
C1217      F1222   1.358       .  S
C1218      H1223   1.083       .  S
C1218      C1219   1.407       .  A
C1219      C1220   1.414       .  A
C1220      F1224   1.357       .  S
C1221      C1226   1.403       .  A
C1221      C1230   1.401       .  A
C1226      C1227   1.397   1_554  A
C1226      F1231   1.358   1_554  S
C1227      H1232   1.083       .  S
C1227      C1228   1.408   1_556  A
C1228      C1229   1.414       .  A
C1229      C1230   1.402       .  A
C1229      F1233   1.357       .  S
C1230      H1234   1.083       .  S
C1235      H1245   1.084       .  S
C1235      C1236   1.402   1_554  A
C1235      C1240   1.399       .  A
C1236      C1241   1.476       .  S
C1236      C1237   1.402       .  A
C1237      C1238   1.398       .  A
C1237      F1242   1.357       .  S
C1238      H1243   1.083       .  S
C1238      C1239   1.408       .  A
C1239      C1240   1.411   1_556  A
C1240      F1244   1.357       .  S
C1241      C1246   1.405       .  A
C1241      C1250   1.399       .  A
C1246      C1247   1.399       .  A
C1246      F1251   1.358       .  S
C1247      H1252   1.083       .  S
C1247      C1248   1.408       .  A
C1248      C1249   1.412       .  A
C1249      C1250   1.397       .  A
C1249      F1253   1.357       .  S
C1250      H1254   1.083       .  S
C1255      H1265   1.083       .  S
C1255      C1256   1.409       .  A
C1255      C1260   1.403       .  A
C1256      C1261   1.488       .  S
C1256      C1257   1.406       .  A
C1257      C1258   1.391       .  A
C1257      F1262   1.358       .  S
C1258      H1263   1.083       .  S
C1258      C1259   1.407       .  A
C1259      C1260   1.408       .  A
C1260      F1264   1.357       .  S
C1261      C1266   1.411       .  A
C1261      C1270   1.405       .  A
C1266      C1267   1.403       .  A
C1266      F1271   1.357       .  S
C1267      H1272   1.083       .  S
C1267      C1268   1.403       .  A
C1268      C1269   1.403       .  A
C1269      C1270   1.391       .  A
C1269      F1273   1.358       .  S
C1270      H1274   1.083       .  S
C1275      H1285   1.083       .  S
C1275      C1276   1.406       .  A
C1275      C1280   1.396       .  A
C1276      C1281   1.486       .  S
C1276      C1277   1.409       .  A
C1277      C1278   1.399       .  A
C1277      F1282   1.357       .  S
C1278      H1283   1.083       .  S
C1278      C1279   1.404       .  A
C1279      C1280   1.405       .  A
C1280      F1284   1.358       .  S
C1281      C1286   1.407       .  A
C1281      C1290   1.405       .  A
C1286      C1287   1.397       .  A
C1286      F1291   1.358       .  S
C1287      H1292   1.083       .  S
C1287      C1288   1.408       .  A
C1288      C1289   1.410       .  A
C1289      C1290   1.398       .  A
C1289      F1293   1.358       .  S
C1290      H1294   1.083       .  S
C1295      H1305   1.083       .  S
C1295      C1296   1.403   1_554  A
C1295      C1300   1.396       .  A
C1296      C1301   1.477       .  S
C1296      C1297   1.405   1_545  A
C1297      C1298   1.397       .  A
C1297      F1302   1.358       .  S
C1298      H1303   1.083       .  S
C1298      C1299   1.406   1_565  A
C1299      C1300   1.407   1_556  A
C1300      F1304   1.358       .  S
C1301      C1306   1.402       .  A
C1301      C1310   1.405   1_546  A
C1306      C1307   1.392   1_556  A
C1306      F1311   1.358       .  S
C1307      H1312   1.083       .  S
C1307      C1308   1.408   1_545  A
C1308      C1309   1.409       .  A
C1309      C1310   1.400       .  A
C1309      F1313   1.357       .  S
C1310      H1314   1.083       .  S
C1315      H1325   1.083       .  S
C1315      C1316   1.404   1_544  A
C1315      C1320   1.403       .  A
C1316      C1321   1.474   1_556  S
C1316      C1317   1.400       .  A
C1317      C1318   1.395       .  A
C1317      F1322   1.358       .  S
C1318      H1323   1.083       .  S
C1318      C1319   1.410   1_565  A
C1319      C1320   1.408   1_556  A
C1320      F1324   1.357       .  S
C1321      C1326   1.399   1_554  A
C1321      C1330   1.403       .  A
C1326      C1327   1.395       .  A
C1326      F1331   1.358       .  S
C1327      H1332   1.083       .  S
C1327      C1328   1.410   1_556  A
C1328      C1329   1.411       .  A
C1329      C1330   1.403       .  A
C1329      F1333   1.357       .  S
C1330      H1334   1.083       .  S
C1335      H1345   1.083       .  S
C1335      C1336   1.409       .  A
C1335      C1340   1.405       .  A
C1336      C1341   1.490       .  S
C1336      C1337   1.408       .  A
C1337      C1338   1.395       .  A
C1337      F1342   1.357       .  S
C1338      H1343   1.084       .  S
C1338      C1339   1.403       .  A
C1339      C1340   1.407       .  A
C1340      F1344   1.357       .  S
C1341      C1346   1.407       .  A
C1341      C1350   1.407       .  A
C1346      C1347   1.400       .  A
C1346      F1351   1.358       .  S
C1347      H1352   1.083       .  S
C1347      C1348   1.408       .  A
C1348      C1349   1.407       .  A
C1349      C1350   1.401       .  A
C1349      F1353   1.357   1_565  S
C1350      H1354   1.083       .  S
C1355      H1365   1.083       .  S
C1355      C1356   1.404       .  A
C1355      C1360   1.395       .  A
C1356      C1361   1.487       .  S
C1356      C1357   1.411       .  A
C1357      C1358   1.401       .  A
C1357      F1362   1.357       .  S
C1358      H1363   1.083       .  S
C1358      C1359   1.402       .  A
C1359      C1360   1.405       .  A
C1360      F1364   1.358       .  S
C1361      C1366   1.408       .  A
C1361      C1370   1.406       .  A
C1366      C1367   1.399       .  A
C1366      F1371   1.357       .  S
C1367      H1372   1.083       .  S
C1367      C1368   1.406       .  A
C1368      C1369   1.409       .  A
C1369      C1370   1.398       .  A
C1369      F1373   1.358       .  S
C1370      H1374   1.083       .  S
C1375      H1385   1.083       .  S
C1375      C1376   1.406       .  A
C1375      C1380   1.400       .  A
C1376      C1381   1.496       .  S
C1376      C1377   1.410       .  A
C1377      C1378   1.404       .  A
C1377      F1382   1.357       .  S
C1378      H1383   1.083       .  S
C1378      C1379   1.406       .  A
C1379      C1380   1.411       .  A
C1380      F1384   1.358       .  S
C1381      C1386   1.413       .  A
C1381      C1390   1.406       .  A
C1386      C1387   1.405       .  A
C1386      F1391   1.357       .  S
C1387      H1392   1.083       .  S
C1387      C1388   1.403       .  A
C1388      C1389   1.407       .  A
C1389      C1390   1.399       .  A
C1389      F1393   1.358       .  S
C1390      H1394   1.083       .  S
C1395      H1405   1.083       .  S
C1395      C1396   1.404       .  A
C1395      C1400   1.398       .  A
C1396      C1401   1.479       .  S
C1396      C1397   1.407       .  A
C1397      C1398   1.396       .  A
C1397      F1402   1.358       .  S
C1398      H1403   1.083       .  S
C1398      C1399   1.403       .  A
C1399      C1400   1.406       .  A
C1400      F1404   1.357       .  S
C1401      C1406   1.406       .  A
C1401      C1410   1.401       .  A
C1406      C1407   1.400       .  A
C1406      F1411   1.357       .  S
C1407      H1412   1.083       .  S
C1407      C1408   1.406       .  A
C1408      C1409   1.410       .  A
C1409      C1410   1.395       .  A
C1409      F1413   1.358       .  S
C1410      H1414   1.084       .  S
C1415      H1425   1.083       .  S
C1415      C1416   1.401       .  A
C1415      C1420   1.397       .  A
C1416      C1421   1.476       .  S
C1416      C1417   1.405       .  A
C1417      C1418   1.396       .  A
C1417      F1422   1.358       .  S
C1418      H1423   1.083       .  S
C1418      C1419   1.406   1_545  A
C1419      C1420   1.411   1_565  A
C1420      F1424   1.357   1_545  S
C1421      C1426   1.404       .  A
C1421      C1430   1.403       .  A
C1426      C1427   1.397       .  A
C1426      F1431   1.358       .  S
C1427      H1432   1.083       .  S
C1427      C1428   1.408       .  A
C1428      C1429   1.408       .  A
C1429      C1430   1.395       .  A
C1429      F1433   1.358       .  S
C1430      H1434   1.083       .  S
C1435      H1445   1.084       .  S
C1435      C1436   1.396       .  A
C1435      C1440   1.394       .  A
C1436      C1441   1.470       .  S
C1436      C1437   1.403       .  A
C1437      C1438   1.399       .  A
C1437      F1442   1.357       .  S
C1438      H1443   1.083       .  S
C1438      C1439   1.407       .  A
C1439      C1440   1.415       .  A
C1440      F1444   1.358       .  S
C1441      C1446   1.403       .  A
C1441      C1450   1.398       .  A
C1446      C1447   1.398       .  A
C1446      F1451   1.357       .  S
C1447      H1452   1.083       .  S
C1447      C1448   1.406       .  A
C1448      C1449   1.414       .  A
C1449      C1450   1.396       .  A
C1449      F1453   1.358       .  S
C1450      H1454   1.084       .  S
C1455      H1465   1.083       .  S
C1455      C1456   1.406       .  A
C1455      C1460   1.399       .  A
C1456      C1461   1.497       .  S
C1456      C1457   1.411       .  A
C1457      C1458   1.404       .  A
C1457      F1462   1.357       .  S
C1458      H1463   1.083       .  S
C1458      C1459   1.407       .  A
C1459      C1460   1.411       .  A
C1460      F1464   1.357       .  S
C1461      C1466   1.413       .  A
C1461      C1470   1.406       .  A
C1466      C1467   1.404       .  A
C1466      F1471   1.357   1_565  S
C1467      H1472   1.083   1_565  S
C1467      C1468   1.403       .  A
C1468      C1469   1.407       .  A
C1469      C1470   1.398       .  A
C1469      F1473   1.358       .  S
C1470      H1474   1.082       .  S
C1475      H1485   1.083       .  S
C1475      C1476   1.406       .  A
C1475      C1480   1.403       .  A
C1476      C1481   1.485       .  S
C1476      C1477   1.406       .  A
C1477      C1478   1.395       .  A
C1477      F1482   1.358       .  S
C1478      H1483   1.083       .  S
C1478      C1479   1.406       .  A
C1479      C1480   1.409       .  A
C1480      F1484   1.357       .  S
C1481      C1486   1.410       .  A
C1481      C1490   1.404       .  A
C1486      C1487   1.403       .  A
C1486      F1491   1.357       .  S
C1487      H1492   1.083       .  S
C1487      C1488   1.403       .  A
C1488      C1489   1.404       .  A
C1489      C1490   1.392       .  A
C1489      F1493   1.358       .  S
C1490      H1494   1.083       .  S
C1495      H1505   1.083       .  S
C1495      C1496   1.407       .  A
C1495      C1500   1.401       .  A
C1496      C1501   1.494       .  S
C1496      C1497   1.408       .  A
C1497      C1498   1.400       .  A
C1497      F1502   1.357       .  S
C1498      H1503   1.083       .  S
C1498      C1499   1.408       .  A
C1499      C1500   1.410       .  A
C1500      F1504   1.357       .  S
C1501      C1506   1.409       .  A
C1501      C1510   1.410       .  A
C1506      C1507   1.396       .  A
C1506      F1511   1.357       .  S
C1507      H1512   1.084       .  S
C1507      C1508   1.404       .  A
C1508      C1509   1.406       .  A
C1509      C1510   1.404       .  A
C1509      F1513   1.357       .  S
C1510      H1514   1.083       .  S
C1515      H1525   1.083       .  S
C1515      C1516   1.401       .  A
C1515      C1520   1.399       .  A
C1516      C1521   1.480       .  S
C1516      C1517   1.405       .  A
C1517      C1518   1.401       .  A
C1517      F1522   1.357       .  S
C1518      H1523   1.083       .  S
C1518      C1519   1.407       .  A
C1519      C1520   1.412       .  A
C1520      F1524   1.358       .  S
C1521      C1526   1.405       .  A
C1521      C1530   1.400       .  A
C1526      C1527   1.401       .  A
C1526      F1531   1.358       .  S
C1527      H1532   1.083       .  S
C1527      C1528   1.408       .  A
C1528      C1529   1.412       .  A
C1529      C1530   1.398       .  A
C1529      F1533   1.358       .  S
C1530      H1534   1.083       .  S
C1535      H1545   1.084       .  S
C1535      C1536   1.396       .  A
C1535      C1540   1.394       .  A
C1536      C1541   1.467       .  S
C1536      C1537   1.403       .  A
C1537      C1538   1.398       .  A
C1537      F1542   1.358       .  S
C1538      H1543   1.083       .  S
C1538      C1539   1.407       .  A
C1539      C1540   1.414       .  A
C1540      F1544   1.358       .  S
C1541      C1546   1.399       .  A
C1541      C1550   1.401       .  A
C1546      C1547   1.393   1_655  A
C1546      F1551   1.358       .  S
C1547      H1552   1.083       .  S
C1547      C1548   1.409       .  A
C1548      C1549   1.410   1_455  A
C1549      C1550   1.398       .  A
C1549      F1553   1.358   1_655  S
C1550      H1554   1.083       .  S
C1555      H1565   1.083       .  S
C1555      C1556   1.406       .  A
C1555      C1560   1.401       .  A
C1556      C1561   1.495       .  S
C1556      C1557   1.410       .  A
C1557      C1558   1.404       .  A
C1557      F1562   1.357   1_455  S
C1558      H1563   1.083   1_455  S
C1558      C1559   1.407       .  A
C1559      C1560   1.408       .  A
C1560      F1564   1.357       .  S
C1561      C1566   1.410       .  A
C1561      C1570   1.403       .  A
C1566      C1567   1.405       .  A
C1566      F1571   1.357       .  S
C1567      H1572   1.083       .  S
C1567      C1568   1.408       .  A
C1568      C1569   1.414       .  A
C1569      C1570   1.399       .  A
C1569      F1573   1.358       .  S
C1570      H1574   1.083       .  S
C1575      H1585   1.084       .  S
C1575      C1576   1.402       .  A
C1575      C1580   1.396       .  A
C1576      C1581   1.475       .  S
C1576      C1577   1.404       .  A
C1577      C1578   1.396       .  A
C1577      F1582   1.357       .  S
C1578      H1583   1.083       .  S
C1578      C1579   1.407       .  A
C1579      C1580   1.411       .  A
C1580      F1584   1.358       .  S
C1581      C1586   1.405       .  A
C1581      C1590   1.404       .  A
C1586      C1587   1.395       .  A
C1586      F1591   1.358       .  S
C1587      H1592   1.084       .  S
C1587      C1588   1.404       .  A
C1588      C1589   1.406       .  A
C1589      C1590   1.396       .  A
C1589      F1593   1.358       .  S
C1590      H1594   1.083       .  S
C1595      H1605   1.083   1_455  S
C1595      C1596   1.403   1_455  A
C1595      C1600   1.395       .  A
C1596      C1601   1.494       .  S
C1596      C1597   1.412   1_655  A
C1597      C1598   1.406       .  A
C1597      F1602   1.357       .  S
C1598      H1603   1.083       .  S
C1598      C1599   1.405       .  A
C1599      C1600   1.412       .  A
C1600      F1604   1.358       .  S
C1601      C1606   1.412       .  A
C1601      C1610   1.407       .  A
C1606      C1607   1.405       .  A
C1606      F1611   1.357   1_655  S
C1607      H1612   1.083       .  S
C1607      C1608   1.403       .  A
C1608      C1609   1.404       .  A
C1609      C1610   1.396       .  A
C1609      F1613   1.358       .  S
C1610      H1614   1.083       .  S
C1615      H1625   1.083       .  S
C1615      C1616   1.408       .  A
C1615      C1620   1.404       .  A
C1616      C1621   1.493       .  S
C1616      C1617   1.408       .  A
C1617      C1618   1.398       .  A
C1617      F1622   1.357       .  S
C1618      H1623   1.083       .  S
C1618      C1619   1.408       .  A
C1619      C1620   1.410       .  A
C1620      F1624   1.357       .  S
C1621      C1626   1.410       .  A
C1621      C1630   1.407       .  A
C1626      C1627   1.401       .  A
C1626      F1631   1.357       .  S
C1627      H1632   1.083       .  S
C1627      C1628   1.404       .  A
C1628      C1629   1.405       .  A
C1629      C1630   1.400       .  A
C1629      F1633   1.358       .  S
C1630      H1634   1.083       .  S
C1635      H1645   1.083       .  S
C1635      C1636   1.409       .  A
C1635      C1640   1.404       .  A
C1636      C1641   1.496       .  S
C1636      C1637   1.408       .  A
C1637      C1638   1.400       .  A
C1637      F1642   1.358       .  S
C1638      H1643   1.083       .  S
C1638      C1639   1.410       .  A
C1639      C1640   1.409       .  A
C1640      F1644   1.357       .  S
C1641      C1646   1.408       .  A
C1641      C1650   1.409       .  A
C1646      C1647   1.399       .  A
C1646      F1651   1.357       .  S
C1647      H1652   1.083       .  S
C1647      C1648   1.406       .  A
C1648      C1649   1.409       .  A
C1649      C1650   1.405       .  A
C1649      F1653   1.357       .  S
C1650      H1654   1.083       .  S
C1655      H1665   1.083       .  S
C1655      C1656   1.403       .  A
C1655      C1660   1.398       .  A
C1656      C1661   1.486   1_565  S
C1656      C1657   1.409   1_565  A
C1657      C1658   1.400   1_545  A
C1657      F1662   1.357       .  S
C1658      H1663   1.083       .  S
C1658      C1659   1.404       .  A
C1659      C1660   1.412       .  A
C1660      F1664   1.358       .  S
C1661      C1666   1.407       .  A
C1661      C1670   1.407       .  A
C1666      C1667   1.397       .  A
C1666      F1671   1.358       .  S
C1667      H1672   1.084       .  S
C1667      C1668   1.405       .  A
C1668      C1669   1.404       .  A
C1669      C1670   1.400       .  A
C1669      F1673   1.357       .  S
C1670      H1674   1.083       .  S
C1675      H1685   1.083       .  S
C1675      C1676   1.406       .  A
C1675      C1680   1.398       .  A
C1676      C1681   1.483       .  S
C1676      C1677   1.408       .  A
C1677      C1678   1.396       .  A
C1677      F1682   1.357       .  S
C1678      H1683   1.083       .  S
C1678      C1679   1.402       .  A
C1679      C1680   1.403       .  A
C1680      F1684   1.357       .  S
C1681      C1686   1.409       .  A
C1681      C1690   1.403       .  A
C1686      C1687   1.397       .  A
C1686      F1691   1.358       .  S
C1687      H1692   1.083       .  S
C1687      C1688   1.404       .  A
C1688      C1689   1.408       .  A
C1689      C1690   1.396       .  A
C1689      F1693   1.358       .  S
C1690      H1694   1.083       .  S
C1695      H1705   1.083       .  S
C1695      C1696   1.406       .  A
C1695      C1700   1.401       .  A
C1696      C1701   1.486       .  S
C1696      C1697   1.406       .  A
C1697      C1698   1.398       .  A
C1697      F1702   1.358       .  S
C1698      H1703   1.083       .  S
C1698      C1699   1.408       .  A
C1699      C1700   1.408       .  A
C1700      F1704   1.357       .  S
C1701      C1706   1.410       .  A
C1701      C1710   1.404       .  A
C1706      C1707   1.402       .  A
C1706      F1711   1.357       .  S
C1707      H1712   1.083       .  S
C1707      C1708   1.403       .  A
C1708      C1709   1.405       .  A
C1709      C1710   1.395       .  A
C1709      F1713   1.358       .  S
C1710      H1714   1.083       .  S
C1715      H1725   1.083       .  S
C1715      C1716   1.407       .  A
C1715      C1720   1.401       .  A
C1716      C1721   1.490       .  S
C1716      C1717   1.410       .  A
C1717      C1718   1.396       .  A
C1717      F1722   1.358       .  S
C1718      H1723   1.084       .  S
C1718      C1719   1.403       .  A
C1719      C1720   1.406       .  A
C1720      F1724   1.357       .  S
C1721      C1726   1.410   1_545  A
C1721      C1730   1.405   1_545  A
C1726      C1727   1.400       .  A
C1726      F1731   1.357       .  S
C1727      H1732   1.083       .  S
C1727      C1728   1.405       .  A
C1728      C1729   1.411       .  A
C1729      C1730   1.397       .  A
C1729      F1733   1.358       .  S
C1730      H1734   1.083   1_565  S
C1735      H1745   1.083       .  S
C1735      C1736   1.405       .  A
C1735      C1740   1.404       .  A
C1736      C1741   1.481       .  S
C1736      C1737   1.401       .  A
C1737      C1738   1.398       .  A
C1737      F1742   1.357       .  S
C1738      H1743   1.083       .  S
C1738      C1739   1.409       .  A
C1739      C1740   1.409       .  A
C1740      F1744   1.357       .  S
C1741      C1746   1.401       .  A
C1741      C1750   1.403       .  A
C1746      C1747   1.399       .  A
C1746      F1751   1.357       .  S
C1747      H1752   1.083       .  S
C1747      C1748   1.411       .  A
C1748      C1749   1.412       .  A
C1749      C1750   1.402       .  A
C1749      F1753   1.357       .  S
C1750      H1754   1.083       .  S
C1755      H1765   1.083       .  S
C1755      C1756   1.404       .  A
C1755      C1760   1.404   1_655  A
C1756      C1761   1.486       .  S
C1756      C1757   1.405       .  A
C1757      C1758   1.398       .  A
C1757      F1762   1.358       .  S
C1758      H1763   1.083   1_655  S
C1758      C1759   1.407   1_655  A
C1759      C1760   1.413       .  A
C1760      F1764   1.357       .  S
C1761      C1766   1.404       .  A
C1761      C1770   1.405       .  A
C1766      C1767   1.401       .  A
C1766      F1771   1.358       .  S
C1767      H1772   1.083       .  S
C1767      C1768   1.412       .  A
C1768      C1769   1.410       .  A
C1769      C1770   1.400       .  A
C1769      F1773   1.357       .  S
C1770      H1774   1.083       .  S
C1775      H1785   1.082       .  S
C1775      C1776   1.405       .  A
C1775      C1780   1.398       .  A
C1776      C1781   1.494       .  S
C1776      C1777   1.411       .  A
C1777      C1778   1.402       .  A
C1777      F1782   1.357       .  S
C1778      H1783   1.083       .  S
C1778      C1779   1.405       .  A
C1779      C1780   1.411       .  A
C1780      F1784   1.358       .  S
C1781      C1786   1.412       .  A
C1781      C1790   1.407       .  A
C1786      C1787   1.402       .  A
C1786      F1791   1.357       .  S
C1787      H1792   1.083       .  S
C1787      C1788   1.404       .  A
C1788      C1789   1.405       .  A
C1789      C1790   1.398       .  A
C1789      F1793   1.358   1_455  S
C1790      H1794   1.083       .  S
C1795      H1805   1.083       .  S
C1795      C1796   1.404       .  A
C1795      C1800   1.397       .  A
C1796      C1801   1.481       .  S
C1796      C1797   1.407       .  A
C1797      C1798   1.396       .  A
C1797      F1802   1.358       .  S
C1798      H1803   1.084       .  S
C1798      C1799   1.405       .  A
C1799      C1800   1.406       .  A
C1800      F1804   1.357       .  S
C1801      C1806   1.406       .  A
C1801      C1810   1.406       .  A
C1806      C1807   1.394       .  A
C1806      F1811   1.357       .  S
C1807      H1812   1.084       .  S
C1807      C1808   1.402       .  A
C1808      C1809   1.404       .  A
C1809      C1810   1.398       .  A
C1809      F1813   1.358       .  S
C1810      H1814   1.083       .  S
C1815      H1825   1.083   1_655  S
C1815      C1816   1.406       .  A
C1815      C1820   1.402       .  A
C1816      C1821   1.481   1_655  S
C1816      C1817   1.406       .  A
C1817      C1818   1.395       .  A
C1817      F1822   1.358       .  S
C1818      H1823   1.084       .  S
C1818      C1819   1.402       .  A
C1819      C1820   1.405       .  A
C1820      F1824   1.357       .  S
C1821      C1826   1.408       .  A
C1821      C1830   1.401       .  A
C1826      C1827   1.402       .  A
C1826      F1831   1.357       .  S
C1827      H1832   1.083       .  S
C1827      C1828   1.406       .  A
C1828      C1829   1.410       .  A
C1829      C1830   1.395       .  A
C1829      F1833   1.358       .  S
C1830      H1834   1.083       .  S
C1835      H1845   1.083       .  S
C1835      C1836   1.405       .  A
C1835      C1840   1.398       .  A
C1836      C1841   1.481       .  S
C1836      C1837   1.408       .  A
C1837      C1838   1.396       .  A
C1837      F1842   1.358       .  S
C1838      H1843   1.083       .  S
C1838      C1839   1.402       .  A
C1839      C1840   1.406       .  A
C1840      F1844   1.357       .  S
C1841      C1846   1.406       .  A
C1841      C1850   1.403       .  A
C1846      C1847   1.398       .  A
C1846      F1851   1.357       .  S
C1847      H1852   1.083       .  S
C1847      C1848   1.405       .  A
C1848      C1849   1.409       .  A
C1849      C1850   1.397       .  A
C1849      F1853   1.358       .  S
C1850      H1854   1.083       .  S
