geometry optimzed in LAMMPS
_audit_creation_date              2020-11-30 
_audit_creation_method            'lammps2cif' 
_symmetry_space_group_name_H-M    'P1' 
_symmetry_Int_Tables_number       1 
_symmetry_cell_setting            triclinic 
loop_ 
_symmetry_equiv_pos_as_xyz 
  x,y,z 
_cell_length_a                    92.98835363 
_cell_length_b                    92.84940484712324 
_cell_length_c                    92.87607609920944 
_cell_angle_alpha                 89.97994188619921 
_cell_angle_beta                  89.98922018379625 
_cell_angle_gamma                 90.03870651517174 
loop_ 
_atom_site_label 
_atom_site_type_symbol 
_atom_site_fract_x 
_atom_site_fract_y 
_atom_site_fract_z 
_atom_site_charge 
N1          N  0.75114539  0.90532483  0.40706252    -0.03300
C2          C  0.74618423  0.90651569  0.39341075    -0.00700
C3          C  0.74785885  0.89362692  0.38615121    -0.23600
C4          C  0.75403069  0.88415976  0.39569631    -0.23800
C5          C  0.75604455  0.89165519  0.40839631    -0.00800
H6          H  0.74483613  0.89134257  0.37513333     0.13000
H7          H  0.75710680  0.87314143  0.39348197     0.13000
N8          N  0.76500364  0.89927819  0.60524660    -0.03300
C9          C  0.76092729  0.90084277  0.61918584    -0.00700
C10         C  0.76502123  0.88889078  0.62709913    -0.23600
C11         C  0.77158739  0.87958388  0.61766433    -0.23800
C12         C  0.77142700  0.88622420  0.60434949    -0.00800
H13         H  0.76274729  0.88678426  0.63833285     0.13000
H14         H  0.77578113  0.86900765  0.62017984     0.13000
N15         N  0.74875305  0.09493110  0.41909262    -0.03300
C16         C  0.74401668  0.09364370  0.40537621    -0.00700
C17         C  0.74564087  0.10652880  0.39808974    -0.23600
C18         C  0.75152444  0.11610012  0.40769366    -0.23800
C19         C  0.75341453  0.10867977  0.42046888    -0.00800
H20         H  0.74271270  0.10875906  0.38703409     0.13000
H21         H  0.75430266  0.12721545  0.40553940     0.13000
N22         N  0.75125453  0.08287265  0.61092072    -0.03300
C23         C  0.74696485  0.08017136  0.62461347    -0.00700
C24         C  0.74844678  0.09240879  0.63297410    -0.23600
C25         C  0.75367186  0.10302037  0.62410710    -0.23800
C26         C  0.75532729  0.09688804  0.61065264    -0.00800
H27         H  0.74557160  0.09362721  0.64420004     0.13000
H28         H  0.75605672  0.11401504  0.62715353     0.13000
O29         O  0.76428379  0.00817622  0.52458723    -0.74200
O30         O  0.76580134  0.98115707  0.49336926    -0.74300
O31         O  0.76390547  0.01012028  0.49534891    -0.74300
O32         O  0.76619231  0.97927862  0.52272117    -0.74400
O33         O  0.74225818  0.97751075  0.52288512    -0.74300
O34         O  0.73996234  0.00864705  0.49569166    -0.74300
O35         O  0.74186908  0.97940799  0.49382767    -0.74300
O36         O  0.74032447  0.00674376  0.52468052    -0.74300
Ni37       Ni  0.76589586  0.99472238  0.50898762     1.25400
Ni38       Ni  0.74025129  0.99300417  0.50926709     1.25400
C39         C  0.75205645  0.01194140  0.52971312     0.87900
C40         C  0.75405676  0.97584182  0.48847865     0.87900
C41         C  0.75156435  0.01453749  0.49108952     0.87900
C42         C  0.75462099  0.97342914  0.52742218     0.88100
N43         N  0.90705443  0.75824186  0.39597459    -0.03300
C44         C  0.90895524  0.75375392  0.38223427    -0.00700
C45         C  0.89666387  0.75627097  0.37422305    -0.23600
C46         C  0.88679185  0.76229318  0.38341544    -0.23800
C47         C  0.89344352  0.76336706  0.39667569    -0.00800
H48         H  0.89484136  0.75343557  0.36306934     0.13000
H49         H  0.87591699  0.76546630  0.38074489     0.13000
N50         N  0.91410108  0.74276654  0.58616927    -0.03300
C51         C  0.91542897  0.73874076  0.60012153    -0.00700
C52         C  0.90242088  0.74024475  0.60716009    -0.23600
C53         C  0.89275272  0.74525024  0.59711549    -0.23800
C54         C  0.90021429  0.74677693  0.58430449    -0.00800
H55         H  0.90015363  0.73778522  0.61832247     0.13000
H56         H  0.88158965  0.74789711  0.59907013     0.13000
N57         N  0.09706499  0.74440341  0.38755347    -0.03300
C58         C  0.09440170  0.73969777  0.37402246    -0.00700
C59         C  0.10642579  0.74157345  0.36545510    -0.23600
C60         C  0.11686114  0.74754429  0.37408053    -0.23800
C61         C  0.11078719  0.74923899  0.38756198    -0.00800
H62         H  0.10755434  0.73872486  0.35421407     0.13000
H63         H  0.12760943  0.75059423  0.37080282     0.13000
N64         N  0.10905474  0.73876178  0.57400516    -0.03300
C65         C  0.10868346  0.73509791  0.58811346    -0.00700
C66         C  0.12212414  0.73664756  0.59424893    -0.23600
C67         C  0.13110697  0.74141853  0.58350809    -0.23800
C68         C  0.12279935  0.74273744  0.57121514    -0.00800
H69         H  0.12507468  0.73450115  0.60531429     0.13000
H70         H  0.14235731  0.74417140  0.58468338     0.13000
O71         O  0.02206071  0.75353173  0.50136021    -0.74200
O72         O  0.99147351  0.75764342  0.47403388    -0.74300
O73         O  0.99318796  0.75579330  0.50322146    -0.74300
O74         O  0.02036235  0.75529549  0.47217401    -0.74400
O75         O  0.01836252  0.73138001  0.47084556    -0.74300
O76         O  0.99133927  0.73188074  0.50192119    -0.74300
O77         O  0.98917333  0.73374167  0.47298432    -0.74300
O78         O  0.02041500  0.72961069  0.49975257    -0.74300
Ni79       Ni  0.00683947  0.75641470  0.48773810     1.25400
Ni80       Ni  0.00474064  0.73080160  0.48631316     1.25400
C81         C  0.02631146  0.74092726  0.50501706     0.87900
C82         C  0.98522185  0.74638827  0.46909575     0.87900
C83         C  0.98781562  0.74389221  0.50771096     0.87900
C84         C  0.02391091  0.74323545  0.46648953     0.88100
N85         N  0.24319248  0.91377235  0.38489293    -0.03300
C86         C  0.24755482  0.91682233  0.37135344    -0.00700
C87         C  0.24546771  0.90509886  0.36243338    -0.23600
C88         C  0.23978211  0.89435687  0.37087608    -0.23800
C89         C  0.23850982  0.89996951  0.38461590    -0.00800
H90         H  0.24838305  0.90423731  0.35118466     0.13000
H91         H  0.23693281  0.88360992  0.36738032     0.13000
N92         N  0.24743517  0.90631643  0.57547050    -0.03300
C93         C  0.25156783  0.90810800  0.58931481    -0.00700
C94         C  0.25005813  0.89540311  0.59691714    -0.23600
C95         C  0.24499229  0.88534822  0.58732578    -0.23800
C96         C  0.24348102  0.89233456  0.57426384    -0.00800
H97         H  0.25285783  0.89352649  0.60807102     0.13000
H98         H  0.24265415  0.87415997  0.58961832     0.13000
N99         N  0.24840367  0.09949384  0.38653983    -0.03300
C100        C  0.24224987  0.11269152  0.38764752    -0.00700
C101        C  0.24408491  0.12028301  0.37496438    -0.23600
C102        C  0.25155873  0.11143866  0.36575554    -0.23800
C103        C  0.25417057  0.09875959  0.37314276    -0.00800
H104        H  0.24031774  0.13105540  0.37261338     0.13000
H105        H  0.25502298  0.11412924  0.35495981     0.13000
N106        N  0.25453391  0.09765399  0.58305747    -0.03300
C107        C  0.24985248  0.11141454  0.58180939    -0.00700
C108        C  0.25163475  0.11869629  0.59465802    -0.23600
C109        C  0.25749032  0.10901428  0.60419487    -0.23800
C110        C  0.25920710  0.09618373  0.59679966    -0.00800
H111        H  0.24867816  0.12973116  0.59695120     0.13000
H112        H  0.26037805  0.11117383  0.61527363     0.13000
O113        O  0.26090876  0.02040475  0.46913084    -0.74200
O114        O  0.26111648  0.99043107  0.49752960    -0.74300
O115        O  0.25997938  0.99114628  0.46853894    -0.74300
O116        O  0.26204508  0.01976006  0.49821104    -0.74400
O117        O  0.23807809  0.02031859  0.49937254    -0.74300
O118        O  0.23601191  0.99191720  0.46937396    -0.74300
O119        O  0.23715662  0.99126043  0.49867720    -0.74300
O120        O  0.23691688  0.02092242  0.46997446    -0.74300
Ni121      Ni  0.26186383  0.00542888  0.48333485     1.25400
Ni122      Ni  0.23618503  0.00615424  0.48439659     1.25400
C123        C  0.24885191  0.02539152  0.46472576     0.87900
C124        C  0.24917776  0.98586790  0.50270558     0.87900
C125        C  0.24767488  0.98681988  0.46406867     0.87900
C126        C  0.25041332  0.02468658  0.50372000     0.88100
N127        N  0.40996852  0.90752442  0.23860154    -0.03300
C128        C  0.41143308  0.89395259  0.23350691    -0.00700
C129        C  0.39836814  0.88684707  0.23383702    -0.23600
C130        C  0.38850606  0.89643949  0.23928368    -0.23800
C131        C  0.39593226  0.90901655  0.24222492    -0.00800
H132        H  0.39623242  0.87590805  0.23042768     0.13000
H133        H  0.37724880  0.89429993  0.24133734     0.13000
N134        N  0.60408332  0.90931198  0.24557224    -0.03300
C135        C  0.60382285  0.89575619  0.24019242    -0.00700
C136        C  0.61711373  0.88931596  0.24195281    -0.23600
C137        C  0.62585260  0.89933511  0.24850341    -0.23800
C138        C  0.61755486  0.91149930  0.25068207    -0.00800
H139        H  0.62018050  0.87857185  0.23864962     0.13000
H140        H  0.63696646  0.89780490  0.25159853     0.13000
N141        N  0.41740489  0.10362569  0.25078631    -0.03300
C142        C  0.41989683  0.11747363  0.24689164    -0.00700
C143        C  0.40803014  0.12588752  0.25005004    -0.23600
C144        C  0.39784580  0.11685392  0.25585012    -0.23800
C145        C  0.40388112  0.10326006  0.25617566    -0.00800
H146        H  0.40662712  0.13721362  0.24768608     0.13000
H147        H  0.38710891  0.11982581  0.25921997     0.13000
N148        N  0.59971525  0.10007180  0.25334036    -0.03300
C149        C  0.59855725  0.11340299  0.24758503    -0.00700
C150        C  0.61112132  0.12109423  0.24967361    -0.23600
C151        C  0.62041715  0.11206001  0.25679624    -0.23800
C152        C  0.61309646  0.09927735  0.25894345    -0.00800
H153        H  0.61344829  0.13189313  0.24594756     0.13000
H154        H  0.63135100  0.11449173  0.25996763     0.13000
O155        O  0.49158883  0.01586376  0.26070613    -0.74200
O156        O  0.52066679  0.98670520  0.25852540    -0.74300
O157        O  0.52056889  0.01593031  0.26108115    -0.74300
O158        O  0.49164571  0.98660215  0.25815291    -0.74400
O159        O  0.49179100  0.98871783  0.23422935    -0.74300
O160        O  0.52100645  0.01785869  0.23714596    -0.74300
O161        O  0.52104952  0.98883753  0.23460711    -0.74300
O162        O  0.49176049  0.01769454  0.23673882    -0.74300
Ni163      Ni  0.50610151  0.00119004  0.26046543     1.25400
Ni164      Ni  0.50641469  0.00335067  0.23482899     1.25400
C165        C  0.48694391  0.02158678  0.24905296     0.87900
C166        C  0.52566122  0.98298558  0.24621490     0.87900
C167        C  0.52551941  0.02176665  0.24959639     0.87900
C168        C  0.48696333  0.98281088  0.24573554     0.88100
N169        N  0.39203267  0.75102804  0.91745882    -0.03300
C170        C  0.39138029  0.75612156  0.90380039    -0.00700
C171        C  0.37743389  0.75533625  0.89868283    -0.23600
C172        C  0.36922827  0.74962593  0.90958707    -0.23800
C173        C  0.37845624  0.74698748  0.92095561    -0.00800
H174        H  0.37363828  0.75855712  0.88814839     0.13000
H175        H  0.35787357  0.74711348  0.90906087     0.13000
N176        N  0.58504346  0.74535802  0.89725046    -0.03300
C177        C  0.58315540  0.75093840  0.88393195    -0.00700
C178        C  0.59549991  0.74927180  0.87579527    -0.23600
C179        C  0.60536398  0.74248879  0.88448092    -0.23800
C180        C  0.59861582  0.74013253  0.89753809    -0.00800
H181        H  0.59719002  0.75273390  0.86479623     0.13000
H182        H  0.61614995  0.73930255  0.88148553     0.13000
N183        N  0.41168401  0.74176455  0.10406345    -0.03300
C184        C  0.41443584  0.74712237  0.11729445    -0.00700
C185        C  0.40316652  0.74412420  0.12653483    -0.23600
C186        C  0.39306762  0.73673514  0.11858313    -0.23800
C187        C  0.39867293  0.73532486  0.10486356    -0.00800
H188        H  0.40232213  0.74711792  0.13776276     0.13000
H189        H  0.38285030  0.73267722  0.12242299     0.13000
N190        N  0.59630162  0.73866603  0.09365926    -0.03300
C191        C  0.59636973  0.74428097  0.10711975    -0.00700
C192        C  0.60988910  0.74297485  0.11319654    -0.23600
C193        C  0.61846304  0.73645469  0.10308105    -0.23800
C194        C  0.60984572  0.73388283  0.09123414    -0.00800
H195        H  0.61324770  0.74671400  0.12370845     0.13000
H196        H  0.62973193  0.73380102  0.10426721     0.13000
O197        O  0.48557297  0.75441376  0.01632539    -0.74200
O198        O  0.51302891  0.75303177  0.98565544    -0.74300
O199        O  0.48393287  0.75564233  0.98738344    -0.74300
O200        O  0.51458679  0.75178301  0.01465593    -0.74400
O201        O  0.51237066  0.72787095  0.01396314    -0.74300
O202        O  0.48185064  0.73172809  0.98622534    -0.74300
O203        O  0.51075900  0.72912487  0.98455696    -0.74300
O204        O  0.48350679  0.73048444  0.01549729    -0.74300
Ni205      Ni  0.49937311  0.75455211  0.00101738     1.25400
Ni206      Ni  0.49705634  0.72893564  0.00001622     1.25400
C207        C  0.48009676  0.74266047  0.02102375     0.87900
C208        C  0.51633428  0.74089943  0.98000265     0.87900
C209        C  0.47776599  0.74435172  0.98240233     0.87900
C210        C  0.51843709  0.73924302  0.01893498     0.88100
N211        N  0.39215750  0.89449795  0.74006929    -0.03300
C212        C  0.39267221  0.88103385  0.74563546    -0.00700
C213        C  0.37987791  0.87388142  0.74306815    -0.23600
C214        C  0.37112143  0.88338036  0.73584027    -0.23800
C215        C  0.37894731  0.89593257  0.73411125    -0.00800
H216        H  0.37704514  0.86310890  0.74650857     0.13000
H217        H  0.36026079  0.88133186  0.73218642     0.13000
N218        N  0.58284746  0.88749771  0.74591123    -0.03300
C219        C  0.58037058  0.87401151  0.75086822    -0.00700
C220        C  0.59267772  0.86575338  0.74991218    -0.23600
C221        C  0.60316417  0.87452652  0.74427611    -0.23800
C222        C  0.59685857  0.88781728  0.74186437    -0.00800
H223        H  0.59397040  0.85466313  0.75325753     0.13000
H224        H  0.61415310  0.87145996  0.74197673     0.13000
N225        N  0.39696828  0.08349948  0.75245813    -0.03300
C226        C  0.39768346  0.09697226  0.75800279    -0.00700
C227        C  0.38457191  0.10384248  0.75664757    -0.23600
C228        C  0.37544189  0.09423343  0.75006915    -0.23800
C229        C  0.38334912  0.08188512  0.74750467    -0.00800
H230        H  0.38193650  0.11465790  0.76009073     0.13000
H231        H  0.36440876  0.09625221  0.74696096     0.13000
N232        N  0.58904201  0.07949803  0.75199765    -0.03300
C233        C  0.58799509  0.09322168  0.75685351    -0.00700
C234        C  0.60101404  0.10024614  0.75516532    -0.23600
C235        C  0.61036828  0.09046981  0.74915510    -0.23800
C236        C  0.60270714  0.07785581  0.74721807    -0.00800
H237        H  0.60349349  0.11123693  0.75814909     0.13000
H238        H  0.62146696  0.09243592  0.74624273     0.13000
O239        O  0.47690736  0.00114544  0.75729213    -0.74200
O240        O  0.50483701  0.97085202  0.75595958    -0.74300
O241        O  0.50614563  0.99976134  0.75764935    -0.74300
O242        O  0.47555944  0.97221152  0.75556245    -0.74400
O243        O  0.47597050  0.97346021  0.73156952    -0.74300
O244        O  0.50648892  0.00129730  0.73367605    -0.74300
O245        O  0.50503990  0.97202907  0.73196061    -0.74300
O246        O  0.47743804  0.00279615  0.73332369    -0.74300
Ni247      Ni  0.49084677  0.98593926  0.75745370     1.25400
Ni248      Ni  0.49124391  0.98744455  0.73176439     1.25400
C249        C  0.47259902  0.00696705  0.74555867     0.87900
C250        C  0.50955506  0.96647823  0.74376494     0.87900
C251        C  0.51137106  0.00504486  0.74602826     0.87900
C252        C  0.47070963  0.96832172  0.74325218     0.88100
N253        N  0.40470142  0.25156767  0.89904593    -0.03300
C254        C  0.39141423  0.25741368  0.90027598    -0.00700
C255        C  0.38411365  0.25621312  0.88734079    -0.23600
C256        C  0.39325803  0.24942217  0.87787307    -0.23800
C257        C  0.40575199  0.24657897  0.88540382    -0.00800
H258        H  0.37328142  0.25980577  0.88505925     0.13000
H259        H  0.39084873  0.24638750  0.86688507     0.13000
N260        N  0.58790991  0.25213723  0.89465371    -0.03300
C261        C  0.60084865  0.25883931  0.89480485    -0.00700
C262        C  0.60714116  0.25813998  0.88133002    -0.23600
C263        C  0.59770777  0.25083947  0.87258038    -0.23800
C264        C  0.58604150  0.24718177  0.88105086    -0.00800
H265        H  0.61751682  0.26242489  0.87822966     0.13000
H266        H  0.59938509  0.24809437  0.86138235     0.13000
N267        N  0.40707294  0.24804789  0.09481000    -0.03300
C268        C  0.40953425  0.24191704  0.10775058    -0.00700
C269        C  0.39748081  0.24286957  0.11639262    -0.23600
C270        C  0.38712297  0.24972805  0.10834334    -0.23800
C271        C  0.39333847  0.25284314  0.09516384    -0.00800
H272        H  0.39632281  0.23890203  0.12728896     0.13000
H273        H  0.37633883  0.25238531  0.11182117     0.13000
N274        N  0.60478182  0.24668823  0.07962632    -0.03300
C275        C  0.60513920  0.24133734  0.09320938    -0.00700
C276        C  0.61875067  0.24287559  0.09900642    -0.23600
C277        C  0.62709003  0.24924606  0.08857613    -0.23800
C278        C  0.61824792  0.25151244  0.07683063    -0.00800
H279        H  0.62230869  0.23945149  0.10955959     0.13000
H280        H  0.63833055  0.25212294  0.08952745     0.13000
O281        O  0.48443532  0.23665261  0.01034887    -0.74200
O282        O  0.51257663  0.23708995  0.98018828    -0.74300
O283        O  0.51373043  0.23552930  0.00911187    -0.74300
O284        O  0.48344918  0.23809229  0.98129147    -0.74400
O285        O  0.48437803  0.26208064  0.98233166    -0.74300
O286        O  0.51450869  0.25951730  0.01054364    -0.74300
O287        O  0.51325876  0.26110790  0.98131799    -0.74300
O288        O  0.48548152  0.26063044  0.01170688    -0.74300
Ni289      Ni  0.49849579  0.23598911  0.99523166     1.25400
Ni290      Ni  0.49942559  0.26169308  0.99655325     1.25400
C291        C  0.48033324  0.24856927  0.01597038     0.87900
C292        C  0.51739082  0.24921572  0.97571617     0.87900
C293        C  0.51922981  0.24708514  0.01424051     0.87900
C294        C  0.47912425  0.25046763  0.97700407     0.88100
N295        N  0.25047701  0.40185271  0.90517020    -0.03300
C296        C  0.24665463  0.40352150  0.89119731    -0.00700
C297        C  0.24980618  0.39118130  0.88346720    -0.23600
C298        C  0.25565875  0.38156142  0.89304745    -0.23800
C299        C  0.25598820  0.38840198  0.90626010    -0.00800
H300        H  0.24787205  0.38929374  0.87213358     0.13000
H301        H  0.25952280  0.37084822  0.89058612     0.13000
N302        N  0.23998611  0.59430172  0.92063161    -0.03300
C303        C  0.23508178  0.59526113  0.90691795    -0.00700
C304        C  0.23502512  0.60949494  0.90247845    -0.23600
C305        C  0.24008806  0.61752429  0.91381511    -0.23800
C306        C  0.24316723  0.60792543  0.92476175    -0.00800
H307        H  0.23175016  0.61360141  0.89207753     0.13000
H308        H  0.24195293  0.62903146  0.91382699     0.13000
N309        N  0.25189639  0.39424037  0.10234313    -0.03300
C310        C  0.24767863  0.39504400  0.11630303    -0.00700
C311        C  0.24971490  0.38194505  0.12308705    -0.23600
C312        C  0.25525665  0.37273444  0.11294743    -0.23800
C313        C  0.25654034  0.38054138  0.10032878    -0.00800
H314        H  0.24701983  0.37924452  0.13409975     0.13000
H315        H  0.25816364  0.36157573  0.11463639     0.13000
N316        N  0.25636488  0.57856137  0.11044007    -0.03300
C317        C  0.26281096  0.59166156  0.11044937    -0.00700
C318        C  0.26248578  0.59755433  0.12411064    -0.23600
C319        C  0.25562784  0.58774450  0.13280313    -0.23800
C320        C  0.25185147  0.57621835  0.12414274    -0.00800
H321        H  0.26669559  0.60791971  0.12737908     0.13000
H322        H  0.25316005  0.58914587  0.14410401     0.13000
O323        O  0.26177551  0.50664708  0.99294116    -0.74200
O324        O  0.26411186  0.47603335  0.02079187    -0.74300
O325        O  0.26276916  0.47753954  0.99134078    -0.74300
O326        O  0.26314953  0.50504282  0.02229951    -0.74400
O327        O  0.23918915  0.50431690  0.02327390    -0.74300
O328        O  0.23883862  0.47664022  0.99257593    -0.74300
O329        O  0.24015680  0.47507426  0.02165569    -0.74300
O330        O  0.23783783  0.50588931  0.99425402    -0.74300
Ni331      Ni  0.26381267  0.49133935  0.00679006     1.25400
Ni332      Ni  0.23817126  0.49043854  0.00796485     1.25400
C333        C  0.24939385  0.51135245  0.98908135     0.87900
C334        C  0.25248639  0.47061678  0.02590041     0.87900
C335        C  0.25070416  0.47257311  0.98684221     0.87900
C336        C  0.25123934  0.50915416  0.02791197     0.88100
N337        N  0.92035873  0.40773943  0.75001023    -0.03300
C338        C  0.90664121  0.40926796  0.75460738    -0.00700
C339        C  0.89974503  0.39608078  0.75489577    -0.23600
C340        C  0.90965646  0.38604489  0.75046206    -0.23800
C341        C  0.92219567  0.39350067  0.74750778    -0.00800
H342        H  0.88881917  0.39395292  0.75830944     0.13000
H343        H  0.90784926  0.37458890  0.74929385     0.13000
N344        N  0.92059705  0.60148955  0.74740990    -0.03300
C345        C  0.92262000  0.61544327  0.74360712    -0.00700
C346        C  0.90987668  0.62300278  0.74494674    -0.23600
C347        C  0.89967736  0.61334307  0.74964269    -0.23800
C348        C  0.90656257  0.60023848  0.75114471    -0.00800
H349        H  0.90810516  0.63424701  0.74244310     0.13000
H350        H  0.88852530  0.61569436  0.75199882     0.13000
N351        N  0.10890950  0.40795909  0.74085796    -0.03300
C352        C  0.12274043  0.41007190  0.74491597    -0.00700
C353        C  0.13077398  0.39780300  0.74243358    -0.23600
C354        C  0.12149519  0.38773541  0.73681553    -0.23800
C355        C  0.10815947  0.39426294  0.73592038    -0.00800
H356        H  0.14202223  0.39617658  0.74493945     0.13000
H357        H  0.12416014  0.37680794  0.73377075     0.13000
N358        N  0.10678332  0.60342851  0.75305822    -0.03300
C359        C  0.10505125  0.61737125  0.74921004    -0.00700
C360        C  0.11720433  0.62524090  0.75269753    -0.23600
C361        C  0.12678865  0.61573516  0.75877389    -0.23800
C362        C  0.12006160  0.60246970  0.75890025    -0.00800
H363        H  0.11905166  0.63657106  0.75067149     0.13000
H364        H  0.13742952  0.61823693  0.76277736     0.13000
O365        O  0.02896804  0.51916728  0.75973437    -0.74200
O366        O  0.00009573  0.48973615  0.75880200    -0.74300
O367        O  0.02913592  0.48980561  0.75935759    -0.74300
O368        O  0.99997687  0.51906382  0.75911678    -0.74400
O369        O  0.00032443  0.51917474  0.73509348    -0.74300
O370        O  0.02969195  0.49026785  0.73534377    -0.74300
O371        O  0.00038361  0.49010054  0.73478445    -0.74300
O372        O  0.02959925  0.51933265  0.73571372    -0.74300
Ni373      Ni  0.01453049  0.50442761  0.76010630     1.25400
Ni374      Ni  0.01502090  0.50472626  0.73437910     1.25400
C375        C  0.03401367  0.52410408  0.74788596     0.87900
C376        C  0.99544988  0.48510113  0.74667005     0.87900
C377        C  0.03422604  0.48525395  0.74736566     0.87900
C378        C  0.99534617  0.52390387  0.74705216     0.88100
N379        N  0.75251661  0.40614648  0.88484481    -0.03300
C380        C  0.75685721  0.40880505  0.87114950    -0.00700
C381        C  0.75447613  0.39682357  0.86261459    -0.23600
C382        C  0.74856458  0.38644128  0.87134679    -0.23800
C383        C  0.74739027  0.39245682  0.88490259    -0.00800
H384        H  0.75703480  0.39565604  0.85130661     0.13000
H385        H  0.74526586  0.37574341  0.86810441     0.13000
N386        N  0.74131424  0.58663612  0.89147961    -0.03300
C387        C  0.74570855  0.58601874  0.87757700    -0.00700
C388        C  0.74283284  0.59890468  0.87067321    -0.23600
C389        C  0.73659814  0.60779063  0.88070769    -0.23800
C390        C  0.73576695  0.59998335  0.89334363    -0.00800
H391        H  0.74548139  0.60172997  0.85968107     0.13000
H392        H  0.73299700  0.61873598  0.87897200     0.13000
N393        N  0.76026381  0.39445547  0.08104211    -0.03300
C394        C  0.76385342  0.39533383  0.09513406    -0.00700
C395        C  0.76335323  0.38186333  0.10146344    -0.23600
C396        C  0.75929940  0.37235302  0.09085916    -0.23800
C397        C  0.75733621  0.38038871  0.07847628    -0.00800
H398        H  0.76561451  0.37925562  0.11259295     0.13000
H399        H  0.75727686  0.36095423  0.09222393     0.13000
N400        N  0.74727536  0.59070528  0.08184301    -0.03300
C401        C  0.75115878  0.58936597  0.09580569    -0.00700
C402        C  0.74886563  0.60212547  0.10312459    -0.23600
C403        C  0.74341081  0.61169064  0.09326415    -0.23800
C404        C  0.74248079  0.60435476  0.08035169    -0.00800
H405        H  0.75101894  0.60426400  0.11437396     0.13000
H406        H  0.74004895  0.62264518  0.09537814     0.13000
O407        O  0.76470117  0.47912735  0.97312466    -0.74200
O408        O  0.76441740  0.50859249  0.00208486    -0.74300
O409        O  0.76652296  0.47927103  0.00221047    -0.74300
O410        O  0.76262331  0.50831045  0.97307203    -0.74400
O411        O  0.73873155  0.50641476  0.97443263    -0.74300
O412        O  0.74264174  0.47765661  0.00388202    -0.74300
O413        O  0.74055192  0.50670580  0.00373318    -0.74300
O414        O  0.74078410  0.47753940  0.97449559    -0.74300
Ni415      Ni  0.76541764  0.49387442  0.98759873     1.25400
Ni416      Ni  0.73982971  0.49200628  0.98922148     1.25400
C417        C  0.75276136  0.47372058  0.96885526     0.87900
C418        C  0.75242326  0.51255698  0.00760461     0.87900
C419        C  0.75523580  0.47368179  0.00784081     0.87900
C420        C  0.75003865  0.51200173  0.96884964     0.88100
N421        N  0.88751075  0.40115291  0.25180579    -0.03300
C422        C  0.88837698  0.38720382  0.25595428    -0.00700
C423        C  0.87585870  0.37993727  0.25252022    -0.23600
C424        C  0.86691852  0.38981050  0.24609728    -0.23800
C425        C  0.87437312  0.40269531  0.24572353    -0.00800
H426        H  0.87344794  0.36871925  0.25457789     0.13000
H427        H  0.85631651  0.38771622  0.24176804     0.13000
N428        N  0.89287863  0.59048691  0.24752238    -0.03300
C429        C  0.89441722  0.60424751  0.25211093    -0.00700
C430        C  0.88148115  0.61150133  0.25104204    -0.23600
C431        C  0.87163339  0.60181084  0.24573113    -0.23800
C432        C  0.87892296  0.58900409  0.24360949    -0.00800
H433        H  0.87936608  0.62255523  0.25406165     0.13000
H434        H  0.86044177  0.60396843  0.24337889     0.13000
N435        N  0.07855287  0.39422212  0.25053047    -0.03300
C436        C  0.07686214  0.38030309  0.25453723    -0.00700
C437        C  0.08975826  0.37298834  0.25335364    -0.23600
C438        C  0.09974784  0.38281519  0.24858131    -0.23800
C439        C  0.09256393  0.39573811  0.24690723    -0.00800
H440        H  0.09175843  0.36181336  0.25598875     0.13000
H441        H  0.11096106  0.38069907  0.24628937     0.13000
N442        N  0.08355213  0.58698214  0.23986960    -0.03300
C443        C  0.08263530  0.60108580  0.24354253    -0.00700
C444        C  0.09597436  0.60758102  0.24234726    -0.23600
C445        C  0.10542190  0.59708465  0.23797686    -0.23800
C446        C  0.09752470  0.58454764  0.23651768    -0.00800
H447        H  0.09866509  0.61862461  0.24492788     0.13000
H448        H  0.11681988  0.59845791  0.23605246     0.13000
O449        O  0.00100124  0.47856319  0.25785936    -0.74200
O450        O  0.97329682  0.50906365  0.25786473    -0.74300
O451        O  0.97181774  0.48014697  0.25979654    -0.74300
O452        O  0.00241233  0.50757740  0.25588951    -0.74400
O453        O  0.00074225  0.50623049  0.23197030    -0.74300
O454        O  0.97041598  0.47847067  0.23585967    -0.74300
O455        O  0.97184014  0.50771915  0.23391413    -0.74300
O456        O  0.99937855  0.47693871  0.23395607    -0.74300
Ni457      Ni  0.98720616  0.49388272  0.25869625     1.25400
Ni458      Ni  0.98553549  0.49227577  0.23306778     1.25400
C459        C  0.00475091  0.47270473  0.24594458     0.87900
C460        C  0.96803969  0.51341856  0.24589091     0.87900
C461        C  0.96609853  0.47481594  0.24844404     0.87900
C462        C  0.00652030  0.51153666  0.24331762     0.88100
N463        N  0.88921231  0.25400479  0.41937830    -0.03300
C464        C  0.88881482  0.25874621  0.40561868    -0.00700
C465        C  0.87510113  0.25766296  0.40006348    -0.23600
C466        C  0.86668785  0.25199797  0.41084570    -0.23800
C467        C  0.87563048  0.24975599  0.42255479    -0.00800
H468        H  0.87163097  0.26060592  0.38933774     0.13000
H469        H  0.85539753  0.24927907  0.41003723     0.13000
N470        N  0.90358967  0.25039921  0.60934290    -0.03300
C471        C  0.90562440  0.25524821  0.62291768    -0.00700
C472        C  0.89289040  0.25471485  0.63057870    -0.23600
C473        C  0.88262922  0.24939426  0.62129699    -0.23800
C474        C  0.88953696  0.24676272  0.60837725    -0.00800
H475        H  0.89121971  0.25798344  0.64163603     0.13000
H476        H  0.87148015  0.24721223  0.62384001     0.13000
N477        N  0.07930527  0.24370253  0.40328458    -0.03300
C478        C  0.07653618  0.24715169  0.38940078    -0.00700
C479        C  0.08850118  0.24464265  0.38093216    -0.23600
C480        C  0.09902458  0.23950742  0.38995890    -0.23800
C481        C  0.09304732  0.23892576  0.40358075    -0.00800
H482        H  0.08950182  0.24647848  0.36946749     0.13000
H483        H  0.10972954  0.23615182  0.38685683     0.13000
N484        N  0.09461351  0.23442101  0.59401096    -0.03300
C485        C  0.09348401  0.23830138  0.60804457    -0.00700
C486        C  0.10563310  0.23414900  0.61555152    -0.23600
C487        C  0.11462450  0.22768296  0.60576950    -0.23800
C488        C  0.10762830  0.22798401  0.59262958    -0.00800
H489        H  0.10793611  0.23605890  0.62681180     0.13000
H490        H  0.12515331  0.22324989  0.60799874     0.13000
O491        O  0.00526105  0.23646712  0.49101916    -0.74200
O492        O  0.97831996  0.23661989  0.52228058    -0.74300
O493        O  0.97628999  0.23759350  0.49298432    -0.74300
O494        O  0.00724476  0.23555167  0.52017601    -0.74400
O495        O  0.00860482  0.25954519  0.52053336    -0.74300
O496        O  0.97692991  0.26158935  0.49400704    -0.74300
O497        O  0.97933499  0.26060447  0.52307423    -0.74300
O498        O  0.00616798  0.26045283  0.49154633    -0.74300
Ni499      Ni  0.99172724  0.23572025  0.50659142     1.25400
Ni500      Ni  0.99278020  0.26141153  0.50732180     1.25400
C501        C  0.01020107  0.24839993  0.48613828     0.87900
C502        C  0.97444205  0.24861131  0.52789320     0.87900
C503        C  0.97151865  0.24991629  0.48900441     0.87900
C504        C  0.01311218  0.24718589  0.52470178     0.88100
O505        O  0.99417489  0.31848275  0.30670140    -0.74200
O506        O  0.96519718  0.30039906  0.32972038    -0.74300
O507        O  0.96535081  0.32043363  0.30849585    -0.74300
O508        O  0.99393540  0.29835696  0.32787198    -0.74400
O509        O  0.99616114  0.31562695  0.34437978    -0.74300
O510        O  0.96747967  0.33790742  0.32480260    -0.74300
O511        O  0.96730352  0.31786816  0.34604790    -0.74300
O512        O  0.99633624  0.33586094  0.32311102    -0.74300
Ni513      Ni  0.97958838  0.30881577  0.31761100     1.25400
Ni514      Ni  0.98191873  0.32743992  0.33517665     1.25400
C515        C  0.99987564  0.33029220  0.31100254     0.87900
C516        C  0.96160948  0.30605723  0.34177804     0.87900
C517        C  0.96178897  0.33285314  0.31329546     0.87900
C518        C  0.99955687  0.30316443  0.33949170     0.88100
O519        O  0.81842760  0.15466608  0.50389349    -0.74200
O520        O  0.83880224  0.17518399  0.53326534    -0.74300
O521        O  0.81900983  0.15351711  0.53292250    -0.74300
O522        O  0.83810379  0.17632652  0.50419250    -0.74400
O523        O  0.82037201  0.19241682  0.50533808    -0.74300
O524        O  0.80152479  0.16987970  0.53401992    -0.74300
O525        O  0.82121703  0.19144834  0.53426163    -0.74300
O526        O  0.80085591  0.17094150  0.50508124    -0.74300
Ni527      Ni  0.82923558  0.16433805  0.51855894     1.25400
Ni528      Ni  0.81037345  0.18172476  0.51973867     1.25400
C529        C  0.80622225  0.15945190  0.49966841     0.87900
C530        C  0.83353487  0.18687075  0.53837387     0.87900
C531        C  0.80693888  0.15784367  0.53800248     0.87900
C532        C  0.83235401  0.18817908  0.50004636     0.88100
O533        O  0.18947536  0.17102539  0.47213525    -0.74200
O534        O  0.16984449  0.18804525  0.50418925    -0.74300
O535        O  0.19243933  0.17008114  0.50093091    -0.74300
O536        O  0.16695686  0.18926009  0.47532668    -0.74400
O537        O  0.15186980  0.17060499  0.47596415    -0.74300
O538        O  0.17757571  0.15126318  0.50191270    -0.74300
O539        O  0.15478934  0.16934887  0.50478090    -0.74300
O540        O  0.17457659  0.15223353  0.47307686    -0.74300
Ni541      Ni  0.18019416  0.18026734  0.48809620     1.25400
Ni542      Ni  0.16416395  0.16018164  0.48894392     1.25400
C543        C  0.18546308  0.15863099  0.46755345     0.87900
C544        C  0.15897670  0.18153597  0.50967090     0.87900
C545        C  0.18931124  0.15751843  0.50562540     0.87900
C546        C  0.15513721  0.18329159  0.47156953     0.88100
O547        O  0.83431586  0.48233354  0.17292196    -0.74200
O548        O  0.81525086  0.51017489  0.14942606    -0.74300
O549        O  0.83360323  0.51119118  0.17221442    -0.74300
O550        O  0.81603906  0.48127192  0.15012794    -0.74400
O551        O  0.79735355  0.48108879  0.16516769    -0.74300
O552        O  0.81495386  0.51101064  0.18729470    -0.74300
O553        O  0.79666030  0.51002478  0.16458913    -0.74300
O554        O  0.81556689  0.48213968  0.18788847    -0.74300
Ni555      Ni  0.82546495  0.49625473  0.16062165     1.25400
Ni556      Ni  0.80546076  0.49607084  0.17675766     1.25400
C557        C  0.82818315  0.47786427  0.18443987     0.87900
C558        C  0.80268859  0.51451395  0.15304029     0.87900
C559        C  0.82737507  0.51574913  0.18363728     0.87900
C560        C  0.80371697  0.47637177  0.15387948     0.88100
O561        O  0.15017131  0.49906684  0.17977755    -0.74200
O562        O  0.17330823  0.46991781  0.16220429    -0.74300
O563        O  0.15019207  0.47012618  0.18025337    -0.74300
O564        O  0.17333919  0.49901972  0.16187663    -0.74400
O565        O  0.18796272  0.49911776  0.18087718    -0.74300
O566        O  0.16496296  0.47042693  0.19914360    -0.74300
O567        O  0.18798918  0.47006405  0.18116168    -0.74300
O568        O  0.16491579  0.49937531  0.19869370    -0.74300
Ni569      Ni  0.16124071  0.48450341  0.17033494     1.25400
Ni570      Ni  0.17698576  0.48473733  0.19062607     1.25400
C571        C  0.15360642  0.50389451  0.19222604     0.87900
C572        C  0.18458553  0.46532137  0.16865510     0.87900
C573        C  0.15355490  0.46584321  0.19294104     0.87900
C574        C  0.18455402  0.50378134  0.16836134     0.88100
O575        O  0.68280927  0.34465159  0.96825625    -0.74200
O576        O  0.66249000  0.32406619  0.99790677    -0.74300
O577        O  0.68514645  0.34267086  0.99726548    -0.74300
O578        O  0.66000946  0.32600174  0.96901793    -0.74400
O579        O  0.67532465  0.30771761  0.96661993    -0.74300
O580        O  0.70024520  0.32420785  0.99483432    -0.74300
O581        O  0.67774992  0.30575720  0.99533967    -0.74300
O582        O  0.69789150  0.32616203  0.96596176    -0.74300
Ni583      Ni  0.67208550  0.33504736  0.98318909     1.25400
Ni584      Ni  0.68833171  0.31533999  0.98058786     1.25400
C585        C  0.69381877  0.33881385  0.96231163     0.87900
C586        C  0.66667973  0.31135575  0.00131939     0.87900
C587        C  0.69683347  0.33619923  0.00071199     0.87900
C588        C  0.66339988  0.31384891  0.96342615     0.88100
O589        O  0.83806440  0.49128646  0.79547062    -0.74200
O590        O  0.81356702  0.51888012  0.81327208    -0.74300
O591        O  0.83688323  0.52021272  0.79575957    -0.74300
O592        O  0.81484562  0.49000418  0.81294981    -0.74400
O593        O  0.82916004  0.49024516  0.83218211    -0.74300
O594        O  0.85133347  0.52061475  0.81489255    -0.74300
O595        O  0.82781491  0.51924209  0.83256136    -0.74300
O596        O  0.85258321  0.49161020  0.81456350    -0.74300
Ni597      Ni  0.82535349  0.50510197  0.80369348     1.25400
Ni598      Ni  0.84075462  0.50546991  0.82424706     1.25400
C599        C  0.84940402  0.48696257  0.80196844     0.87900
C600        C  0.81636157  0.52328035  0.82602441     0.87900
C601        C  0.84794703  0.52518169  0.80230469     0.87900
C602        C  0.81817418  0.48526795  0.82547322     0.88100
O603        O  0.02477815  0.30126544  0.67501266    -0.74200
O604        O  0.99882094  0.32406098  0.69711837    -0.74300
O605        O  0.99604594  0.30203770  0.67820376    -0.74300
O606        O  0.02754304  0.32338266  0.69389935    -0.74400
O607        O  0.02612198  0.33923039  0.67593812    -0.74300
O608        O  0.99455572  0.31782804  0.66019632    -0.74300
O609        O  0.99730665  0.33994507  0.67919197    -0.74300
O610        O  0.02337195  0.31692262  0.65688520    -0.74300
Ni611      Ni  0.01187455  0.31214268  0.68668563     1.25400
Ni612      Ni  0.01029933  0.32904415  0.66738899     1.25400
C613        C  0.02811828  0.30509011  0.66219710     0.87900
C614        C  0.99389564  0.33584031  0.69192799     0.87900
C615        C  0.99016753  0.30635033  0.66650147     0.87900
C616        C  0.03182250  0.33499040  0.68776233     0.88100
O617        O  0.18102076  0.51733627  0.80715375    -0.74200
O618        O  0.20002294  0.48775068  0.82832307    -0.74300
O619        O  0.18180815  0.48843202  0.80560919    -0.74300
O620        O  0.19916622  0.51678370  0.82980789    -0.74400
O621        O  0.18062734  0.51520941  0.84497743    -0.74300
O622        O  0.16302457  0.48713194  0.82045872    -0.74300
O623        O  0.18133730  0.48626521  0.84329722    -0.74300
O624        O  0.16236790  0.51613761  0.82218200    -0.74300
Ni625      Ni  0.19117175  0.50260694  0.81720828     1.25400
Ni626      Ni  0.17116405  0.50112802  0.83327029     1.25400
C627        C  0.16853176  0.52157872  0.81109621     0.87900
C628        C  0.19389885  0.48219705  0.83936033     0.87900
C629        C  0.16943233  0.48330511  0.80885592     0.87900
C630        C  0.19280412  0.52060328  0.84142187     0.88100
O631        O  0.34422014  0.32007457  0.98568229    -0.74200
O632        O  0.32256835  0.33909628  0.01532937    -0.74300
O633        O  0.34399497  0.31932501  0.01469833    -0.74300
O634        O  0.32287340  0.34004042  0.98634785    -0.74400
O635        O  0.30656380  0.32244623  0.98558881    -0.74300
O636        O  0.32771459  0.30168994  0.01414034    -0.74300
O637        O  0.30638943  0.32139337  0.01457248    -0.74300
O638        O  0.32783844  0.30255361  0.98505286    -0.74300
Ni639      Ni  0.33400663  0.33025678  0.00052293     1.25400
Ni640      Ni  0.31655683  0.31138905  0.99980100     1.25400
C641        C  0.33962077  0.30809937  0.98054949     0.87900
C642        C  0.31082554  0.33336251  0.01978180     0.87900
C643        C  0.33937135  0.30711818  0.01911155     0.87900
C644        C  0.31111616  0.33480615  0.98146347     0.88100
O645        O  0.50847414  0.14599330  0.82271099    -0.74200
O646        O  0.48075935  0.16923105  0.84256765    -0.74300
O647        O  0.47938102  0.14691213  0.82358028    -0.74300
O648        O  0.50977529  0.16845717  0.84165810    -0.74400
O649        O  0.50953732  0.18383548  0.82324434    -0.74300
O650        O  0.47936716  0.16251313  0.80534879    -0.74300
O651        O  0.48070783  0.18468690  0.82421097    -0.74300
O652        O  0.50838065  0.16154851  0.80443771    -0.74300
Ni653      Ni  0.49460728  0.15706664  0.83328200     1.25400
Ni654      Ni  0.49449900  0.17366217  0.81366284     1.25400
C655        C  0.51294218  0.14989138  0.81024476     0.87900
C656        C  0.47635764  0.18094834  0.83675766     0.87900
C657        C  0.47441365  0.15116085  0.81140937     0.87900
C658        C  0.51441129  0.17995359  0.83553841     0.88100
O659        O  0.52567420  0.17504871  0.18478509    -0.74200
O660        O  0.49782179  0.19514358  0.16269924    -0.74300
O661        O  0.49688712  0.17630219  0.18483386    -0.74300
O662        O  0.52672061  0.19381949  0.16260091    -0.74400
O663        O  0.52573899  0.17570892  0.14688360    -0.74300
O664        O  0.49606460  0.15796293  0.16938405    -0.74300
O665        O  0.49667255  0.17697773  0.14706764    -0.74300
O666        O  0.52502918  0.15673370  0.16929638    -0.74300
Ni667      Ni  0.51181232  0.18572507  0.17424172     1.25400
Ni668      Ni  0.51085672  0.16618756  0.15756707     1.25400
C669        C  0.52973517  0.16246996  0.18094365     0.87900
C670        C  0.49259219  0.18946988  0.15129480     0.87900
C671        C  0.49176977  0.16408359  0.18098136     0.87900
C672        C  0.53106115  0.18775871  0.15100228     0.88100
O673        O  0.32329381  0.00897920  0.68250448    -0.74200
O674        O  0.30336315  0.98302407  0.65793588    -0.74300
O675        O  0.32191168  0.98019074  0.68019786    -0.74300
O676        O  0.30483212  0.01181880  0.66020666    -0.74400
O677        O  0.32310511  0.01203378  0.64466650    -0.74300
O678        O  0.34038003  0.98053827  0.66490708    -0.74300
O679        O  0.32166999  0.98311117  0.64245205    -0.74300
O680        O  0.34175175  0.00945698  0.66720416    -0.74300
Ni681      Ni  0.31270930  0.99598849  0.67073452     1.25400
Ni682      Ni  0.33240519  0.99629860  0.65424709     1.25400
C683        C  0.33588525  0.01335124  0.67908586     0.87900
C684        C  0.30903162  0.97892465  0.64607129     0.87900
C685        C  0.33410918  0.97531979  0.67603917     0.87900
C686        C  0.31099898  0.01698893  0.64900362     0.88100
O687        O  0.46783763  0.83771996  0.82286468    -0.74200
O688        O  0.49787438  0.81814434  0.84346458    -0.74300
O689        O  0.49692196  0.83724549  0.82127106    -0.74300
O690        O  0.46883464  0.81859401  0.84522641    -0.74400
O691        O  0.46762790  0.80052413  0.82947237    -0.74300
O692        O  0.49559190  0.81893721  0.80582096    -0.74300
O693        O  0.49647381  0.80006437  0.82773938    -0.74300
O694        O  0.46680285  0.81938451  0.80742544    -0.74300
Ni695      Ni  0.48288605  0.82860718  0.83379520     1.25400
Ni696      Ni  0.48156520  0.80910498  0.81709897     1.25400
C697        C  0.46257899  0.83182337  0.81153081     0.87900
C698        C  0.50211927  0.80582916  0.83888957     0.87900
C699        C  0.50086450  0.83111701  0.80954505     0.87900
C700        C  0.46372058  0.80637591  0.84131894     0.88100
O701        O  0.34435776  0.66821341  0.02734740    -0.74200
O702        O  0.32026818  0.64865109  0.00015771    -0.74300
O703        O  0.34049230  0.66989291  0.99861992    -0.74300
O704        O  0.32412900  0.64697400  0.02882737    -0.74400
O705        O  0.30717391  0.66359655  0.03213802    -0.74300
O706        O  0.32336956  0.68635510  0.00182945    -0.74300
O707        O  0.30324600  0.66519439  0.00351089    -0.74300
O708        O  0.32726808  0.68472821  0.03048308    -0.74300
Ni709      Ni  0.33293101  0.65784332  0.01361598     1.25400
Ni710      Ni  0.31466956  0.67555020  0.01709857     1.25400
C711        C  0.33984498  0.67984363  0.03324560     0.87900
C712        C  0.30763689  0.65354105  0.99759913     0.87900
C713        C  0.33479348  0.68205282  0.99542641     0.87900
C714        C  0.31276541  0.65138124  0.03527682     0.88100
O715        O  0.49541861  0.82782898  0.19172029    -0.74200
O716        O  0.52426302  0.80506102  0.17345932    -0.74300
O717        O  0.52440754  0.82756309  0.19205696    -0.74300
O718        O  0.49546069  0.80534419  0.17311182    -0.74400
O719        O  0.49559134  0.82071395  0.15467600    -0.74300
O720        O  0.52482970  0.84287805  0.17357729    -0.74300
O721        O  0.52448206  0.82022698  0.15484949    -0.74300
O722        O  0.49584085  0.84330661  0.17337122    -0.74300
Ni723      Ni  0.50987686  0.81593639  0.18325405     1.25400
Ni724      Ni  0.51021225  0.83235109  0.16346351     1.25400
C725        C  0.49096321  0.83938901  0.18566708     0.87900
C726        C  0.52878353  0.80861016  0.16093065     0.87900
C727        C  0.52929940  0.83897699  0.18604053     0.87900
C728        C  0.49098949  0.80913821  0.16062944     0.88100
O729        O  0.31258198  0.02034031  0.31295558    -0.74200
O730        O  0.33235808  0.99016092  0.29339516    -0.74300
O731        O  0.31068187  0.99153895  0.31276378    -0.74300
O732        O  0.33423740  0.01913962  0.29369120    -0.74400
O733        O  0.35013364  0.01807681  0.31162847    -0.74300
O734        O  0.32647446  0.99025414  0.33076798    -0.74300
O735        O  0.34829497  0.98901746  0.31127584    -0.74300
O736        O  0.32822592  0.01921664  0.33109930    -0.74300
Ni737      Ni  0.32193367  0.00531865  0.30256451     1.25400
Ni738      Ni  0.33888458  0.00408585  0.32183248     1.25400
C739        C  0.31691903  0.02461055  0.32532223     0.87900
C740        C  0.34367438  0.98468056  0.29900677     0.87900
C741        C  0.31446916  0.98661248  0.32506301     0.87900
C742        C  0.34604228  0.02321276  0.29949414     0.88100
O743        O  0.16239137  0.81741890  0.49345475    -0.74200
O744        O  0.17939916  0.84137237  0.46459393    -0.74300
O745        O  0.16069714  0.81890824  0.46455982    -0.74300
O746        O  0.18108612  0.83997854  0.49346813    -0.74400
O747        O  0.19950912  0.82474585  0.49157909    -0.74300
O748        O  0.17911427  0.80365642  0.46280181    -0.74300
O749        O  0.19772556  0.82601754  0.46265657    -0.74300
O750        O  0.18091294  0.80229353  0.49167038    -0.74300
Ni751      Ni  0.17023685  0.82997499  0.47909152     1.25400
Ni752      Ni  0.18996837  0.81364072  0.47711763     1.25400
C753        C  0.16875806  0.80575415  0.49714646     0.87900
C754        C  0.19143222  0.83770450  0.45896926     0.87900
C755        C  0.16647802  0.80766765  0.45905594     0.87900
C756        C  0.19374186  0.83596350  0.49714668     0.88100
O757        O  0.00791203  0.68999806  0.31672634    -0.74200
O758        O  0.97722084  0.66949441  0.29843535    -0.74300
O759        O  0.97913484  0.69055262  0.31847654    -0.74300
O760        O  0.00612449  0.66914553  0.29652808    -0.74400
O761        O  0.00684848  0.65230144  0.31361578    -0.74300
O762        O  0.97981671  0.67426799  0.33608509    -0.74300
O763        O  0.97787646  0.65297440  0.31583245    -0.74300
O764        O  0.00869600  0.67333208  0.33398440    -0.74300
Ni765      Ni  0.99255032  0.68036160  0.30694045     1.25400
Ni766      Ni  0.99332351  0.66259392  0.32550231     1.25400
C767        C  0.01323071  0.68514746  0.32849717     0.87900
C768        C  0.97262021  0.65772326  0.30400049     0.87900
C769        C  0.97530253  0.68629843  0.33099977     0.87900
C770        C  0.01089787  0.65715828  0.30131563     0.88100
O771        O  0.81053469  0.82781656  0.48646035    -0.74200
O772        O  0.83261167  0.80420723  0.51170624    -0.74300
O773        O  0.81256533  0.82506762  0.51527065    -0.74300
O774        O  0.83054755  0.80713955  0.48297162    -0.74400
O775        O  0.84785698  0.82376023  0.48336427    -0.74300
O776        O  0.82966562  0.84190458  0.51551095    -0.74300
O777        O  0.84987755  0.82086136  0.51213488    -0.74300
O778        O  0.82767641  0.84459935  0.48659516    -0.74300
Ni779      Ni  0.82095076  0.81549059  0.49911268     1.25400
Ni780      Ni  0.83938879  0.83339690  0.49944989     1.25400
C781        C  0.81541268  0.84000989  0.48225549     0.87900
C782        C  0.84504443  0.80844723  0.51582562     0.87900
C783        C  0.81800921  0.83657182  0.52058619     0.87900
C784        C  0.84224900  0.81239461  0.47793185     0.88100
O785        O  0.67833515  0.01651365  0.34972588    -0.74200
O786        O  0.65869228  0.98981645  0.32517880    -0.74300
O787        O  0.67833318  0.98757456  0.34689244    -0.74300
O788        O  0.65882719  0.01876464  0.32789161    -0.74400
O789        O  0.67686033  0.02008814  0.31214485    -0.74300
O790        O  0.69599279  0.98908761  0.33073749    -0.74300
O791        O  0.67652148  0.99130023  0.30921295    -0.74300
O792        O  0.69619652  0.01787928  0.33378668    -0.74300
Ni793      Ni  0.66789446  0.00311514  0.33800665     1.25400
Ni794      Ni  0.68701034  0.00464948  0.32092367     1.25400
C795        C  0.69063192  0.02143422  0.34590372     0.87900
C796        C  0.66426238  0.98628739  0.31305914     0.87900
C797        C  0.69051783  0.98333098  0.34198829     0.87900
C798        C  0.66459513  0.02437757  0.31666252     0.88100
O799        O  0.02934527  0.67831394  0.64940357    -0.74200
O800        O  0.00134038  0.66062134  0.67361969    -0.74300
O801        O  0.00043678  0.67861812  0.65054662    -0.74300
O802        O  0.03024808  0.66049102  0.67265887    -0.74400
O803        O  0.03085919  0.67965937  0.68707128    -0.74300
O804        O  0.00097593  0.69750629  0.66534101    -0.74300
O805        O  0.00193887  0.67950289  0.68840471    -0.74300
O806        O  0.03000420  0.69748350  0.66381385    -0.74300
Ni807      Ni  0.01532723  0.66885176  0.66102934     1.25400
Ni808      Ni  0.01598402  0.68922847  0.67666852     1.25400
C809        C  0.03412980  0.69088557  0.65239599     0.87900
C810        C  0.99720186  0.66693117  0.68514732     0.87900
C811        C  0.99585894  0.69110605  0.65426634     0.87900
C812        C  0.03520143  0.66699707  0.68378254     0.88100
O813        O  0.69008342  0.99747177  0.68167813    -0.74200
O814        O  0.66801341  0.96668350  0.69780726    -0.74300
O815        O  0.69115288  0.96857242  0.68027094    -0.74300
O816        O  0.66709705  0.99570210  0.69936172    -0.74400
O817        O  0.65240910  0.99646268  0.68043116    -0.74300
O818        O  0.67669230  0.96892697  0.66115117    -0.74300
O819        O  0.65332674  0.96733107  0.67885331    -0.74300
O820        O  0.67559672  0.99797313  0.66257490    -0.74300
Ni821      Ni  0.67957023  0.98207746  0.69044717     1.25400
Ni822      Ni  0.66396060  0.98266938  0.67006390     1.25400
C823        C  0.68662227  0.00267875  0.66937650     0.87900
C824        C  0.65691674  0.96203838  0.69107356     0.87900
C825        C  0.68813071  0.96446309  0.66748061     0.87900
C826        C  0.65585233  0.00065071  0.69314549     0.88100
O827        O  0.64707736  0.66839075  0.97483198    -0.74200
O828        O  0.66969994  0.64802621  0.00282130    -0.74300
O829        O  0.64873442  0.66834836  0.00391467    -0.74300
O830        O  0.66801578  0.64781944  0.97383256    -0.74400
O831        O  0.68473844  0.66499417  0.97288737    -0.74300
O832        O  0.66537285  0.68559894  0.00278173    -0.74300
O833        O  0.68612747  0.66548295  0.00168781    -0.74300
O834        O  0.66399087  0.68538033  0.97384679    -0.74300
Ni835      Ni  0.65774847  0.65752538  0.98886090     1.25400
Ni836      Ni  0.67561362  0.67597075  0.98773953     1.25400
C837        C  0.65182047  0.68037995  0.96985510     0.87900
C838        C  0.68176003  0.65345607  0.00675739     0.87900
C839        C  0.65391309  0.68033603  0.00836483     0.87900
C840        C  0.67979135  0.65281480  0.96868023     0.88100
C841        C  0.03725141  0.29541801  0.65342335    -0.01100
C842        C  0.04046734  0.29862953  0.63903683    -0.09100
C843        C  0.04870485  0.28917979  0.63070453    -0.18000
C844        C  0.05403515  0.27615320  0.63656194     0.04400
C845        C  0.05059671  0.27292797  0.65112640     0.18600
C846        C  0.04233226  0.28249507  0.65933288    -0.19400
C847        C  0.05549059  0.26019907  0.65751202    -0.20600
C848        C  0.06405566  0.25068413  0.64984825    -0.19200
C849        C  0.06794099  0.25367390  0.63561858     0.20000
C850        C  0.06284616  0.26632895  0.62865027     0.02100
C851        C  0.06713116  0.26872864  0.61422218    -0.13900
C852        C  0.07659176  0.25930782  0.60730493    -0.11600
C853        C  0.08188949  0.24713361  0.61443829     0.01700
C854        C  0.07728944  0.24425202  0.62847629    -0.23800
H855        H  0.03654378  0.30846261  0.63414795     0.09700
H856        H  0.05073088  0.29239266  0.61974372     0.13200
H857        H  0.03984230  0.27980490  0.67041920     0.12000
H858        H  0.05281682  0.25766099  0.66858718     0.13200
H859        H  0.06786277  0.24102133  0.65517349     0.12200
H860        H  0.06369520  0.27798220  0.60813144     0.09300
H861        H  0.08025484  0.26194336  0.59656115     0.12500
H862        H  0.08135808  0.23481094  0.63401903     0.14400
C863        C  0.15099501  0.18822128  0.52166219    -0.01100
C864        C  0.13667349  0.18436317  0.52431604    -0.09100
C865        C  0.12887173  0.19090659  0.53535670    -0.18000
C866        C  0.13526435  0.20145655  0.54427217     0.04400
C867        C  0.14994172  0.20502907  0.54174751     0.18600
C868        C  0.15756252  0.19856106  0.53042807    -0.19400
C869        C  0.15697794  0.21498455  0.55057611    -0.20600
C870        C  0.14977897  0.22146181  0.56194329    -0.19200
C871        C  0.13530414  0.21832694  0.56459809     0.20000
C872        C  0.12772629  0.20844852  0.55570834     0.02100
C873        C  0.11297849  0.20600833  0.55872465    -0.13900
C874        C  0.10623766  0.21274191  0.57038105    -0.11600
C875        C  0.11395624  0.22208601  0.57930009     0.01700
C876        C  0.12841515  0.22492463  0.57625549    -0.23800
H877        H  0.13137376  0.17637686  0.51766992     0.09700
H878        H  0.11791541  0.18738498  0.53670578     0.13200
H879        H  0.16870708  0.20145940  0.52854961     0.12000
H880        H  0.16817307  0.21768993  0.54875543     0.13200
H881        H  0.15557463  0.22900974  0.56869739     0.12200
H882        H  0.10639777  0.19889245  0.55236178     0.09300
H883        H  0.09509928  0.21024239  0.57269750     0.12500
H884        H  0.13438751  0.23223046  0.58313702     0.14400
C885        C  0.08360976  0.23593980  0.58322555    -0.01100
C886        C  0.08607159  0.24390788  0.57068404    -0.09100
C887        C  0.07492467  0.24628599  0.56081683    -0.18000
C888        C  0.06099810  0.24053831  0.56319729     0.04400
C889        C  0.05886889  0.23190641  0.57567666     0.18600
C890        C  0.07005350  0.22989487  0.58559183    -0.19400
C891        C  0.04558800  0.22530582  0.57821955    -0.20600
C892        C  0.03433835  0.22692490  0.56853147    -0.19200
C893        C  0.03593141  0.23558921  0.55631477     0.20000
C894        C  0.04914644  0.24285682  0.55363337     0.02100
C895        C  0.04978819  0.25225149  0.54163209    -0.13900
C896        C  0.03792004  0.25400249  0.53251054    -0.11600
C897        C  0.02525104  0.24620147  0.53485663     0.01700
C898        C  0.02431487  0.23705505  0.54677688    -0.23800
H899        H  0.09656622  0.24857523  0.56872579     0.09700
H900        H  0.07753040  0.25253979  0.55138835     0.13200
H901        H  0.06827907  0.22358263  0.59525601     0.12000
H902        H  0.04394311  0.21867990  0.58768979     0.13200
H903        H  0.02425108  0.22148331  0.57069975     0.12200
H904        H  0.05924068  0.25850511  0.53914562     0.09300
H905        H  0.03877114  0.26118851  0.52335577     0.12500
H906        H  0.01440103  0.23120208  0.54872677     0.14400
C907        C  0.06311429  0.25339582  0.38380518    -0.01100
C908        C  0.05699296  0.24768898  0.37131225    -0.09100
C909        C  0.04568923  0.25472525  0.36443932    -0.18000
C910        C  0.04038465  0.26798315  0.36972784     0.04400
C911        C  0.04645259  0.27352212  0.38265812     0.18600
C912        C  0.05759067  0.26610399  0.38965594    -0.19400
C913        C  0.04182942  0.28675086  0.38817071    -0.20600
C914        C  0.03164283  0.29488360  0.38085098    -0.19200
C915        C  0.02571718  0.28990576  0.36792892     0.20000
C916        C  0.02973912  0.27622805  0.36234812     0.02100
C917        C  0.02316206  0.27156314  0.34944678    -0.13900
C918        C  0.01345043  0.28033620  0.34213841    -0.11600
C919        C  0.00987907  0.29401063  0.34741746     0.01700
C920        C  0.01591370  0.29863520  0.36044697    -0.23800
H921        H  0.06125102  0.23788887  0.36663113     0.09700
H922        H  0.04172842  0.24975664  0.35474384     0.13200
H923        H  0.06259335  0.27072522  0.39912651     0.12000
H924        H  0.04638865  0.29100930  0.39803086     0.13200
H925        H  0.02851957  0.30523741  0.38523253     0.12200
H926        H  0.02529847  0.26121610  0.34467031     0.09300
H927        H  0.00874778  0.27635262  0.33224032     0.12500
H928        H  0.01305092  0.30909637  0.36476321     0.14400
C929        C  0.10046182  0.23249200  0.41602153    -0.01100
C930        C  0.09427531  0.22101924  0.42355945    -0.09100
C931        C  0.10236519  0.21313429  0.43347025    -0.18000
C932        C  0.11700933  0.21644861  0.43597621     0.04400
C933        C  0.12295237  0.22858526  0.42873945     0.18600
C934        C  0.11466696  0.23642984  0.41890294    -0.19400
C935        C  0.13729320  0.23252459  0.43092810    -0.20600
C936        C  0.14605082  0.22443602  0.43989317    -0.19200
C937        C  0.14069669  0.21216408  0.44679382     0.20000
C938        C  0.12609108  0.20798710  0.44504143     0.02100
C939        C  0.12137953  0.19534678  0.45216471    -0.13900
C940        C  0.13082547  0.18719739  0.46057316    -0.11600
C941        C  0.14518021  0.19144019  0.46224251     0.01700
C942        C  0.14998380  0.20396802  0.45534716    -0.23800
H943        H  0.08341090  0.21758806  0.42121024     0.09700
H944        H  0.09697183  0.20426239  0.43866737     0.13200
H945        H  0.11944981  0.24531689  0.41300502     0.12000
H946        H  0.14183369  0.24180809  0.42549241     0.13200
H947        H  0.15717072  0.22767454  0.44125551     0.12200
H948        H  0.11049602  0.19141672  0.45138408     0.09300
H949        H  0.12682662  0.17763020  0.46591875     0.12500
H950        H  0.16108803  0.20734858  0.45654406     0.14400
C951        C  0.06962663  0.24482948  0.41528974    -0.01100
C952        C  0.07095746  0.25619110  0.42505421    -0.09100
C953        C  0.06155660  0.25738065  0.43675491    -0.18000
C954        C  0.05074231  0.24691366  0.43921227     0.04400
C955        C  0.04992375  0.23507047  0.42951502     0.18600
C956        C  0.05905989  0.23436521  0.41748476    -0.19400
C957        C  0.04011323  0.22391251  0.43197144    -0.20600
C958        C  0.03102510  0.22424509  0.44384808    -0.19200
C959        C  0.03114806  0.23599486  0.45328380     0.20000
C960        C  0.04083055  0.24763627  0.45099088     0.02100
C961        C  0.03994479  0.25957484  0.46042593    -0.13900
C962        C  0.02993794  0.25985571  0.47168570    -0.11600
C963        C  0.02068551  0.24818142  0.47410133     0.01700
C964        C  0.02145001  0.23624629  0.46488950    -0.23800
H965        H  0.07924482  0.26424058  0.42348833     0.09700
H966        H  0.06319905  0.26641895  0.44384659     0.13200
H967        H  0.05826927  0.22546196  0.40997541     0.12000
H968        H  0.03956591  0.21477720  0.42472935     0.13200
H969        H  0.02364808  0.21535627  0.44551521     0.12200
H970        H  0.04663699  0.26897805  0.45919348     0.09300
H971        H  0.02954224  0.26921715  0.47863072     0.12500
H972        H  0.01421136  0.22723310  0.46654434     0.14400
C973        C  0.91911683  0.26119705  0.62865222    -0.01100
C974        C  0.92481273  0.25586639  0.64150882    -0.09100
C975        C  0.93687197  0.26228479  0.64775071    -0.18000
C976        C  0.94336771  0.27453822  0.64141794     0.04400
C977        C  0.93744500  0.27984046  0.62831354     0.18600
C978        C  0.92555620  0.27303569  0.62199263    -0.19400
C979        C  0.94315065  0.29214971  0.62178630    -0.20600
C980        C  0.95451447  0.29950120  0.62809404    -0.19200
C981        C  0.96056176  0.29462465  0.64099245     0.20000
C982        C  0.95524377  0.28196133  0.64776758     0.02100
C983        C  0.96197023  0.27741450  0.66065611    -0.13900
C984        C  0.97326303  0.28530384  0.66668211    -0.11600
C985        C  0.97824447  0.29794320  0.66009306     0.01700
C986        C  0.97187947  0.30244732  0.64718446    -0.23800
H987        H  0.91980951  0.24675220  0.64681079     0.09700
H988        H  0.94060868  0.25762811  0.65769347     0.13200
H989        H  0.92089009  0.27735526  0.61220312     0.12000
H990        H  0.93865051  0.29624900  0.61183068     0.13200
H991        H  0.95857111  0.30911943  0.62286455     0.12200
H992        H  0.95878123  0.26781017  0.66633663     0.09300
H993        H  0.97808936  0.28147528  0.67658101     0.12500
H994        H  0.97571550  0.31213082  0.64189977     0.14400
C995        C  0.88282345  0.23906398  0.59626524    -0.01100
C996        C  0.88890880  0.22627921  0.59121597    -0.09100
C997        C  0.88151533  0.21764449  0.58142372    -0.18000
C998        C  0.86770067  0.22158811  0.57641458     0.04400
C999        C  0.86199293  0.23505343  0.58094776     0.18600
C1000       C  0.86949707  0.24354541  0.59093325    -0.19400
C1001       C  0.84869327  0.23979496  0.57574931    -0.20600
C1002       C  0.84076450  0.23129969  0.56633003    -0.19200
C1003       C  0.84579649  0.21772161  0.56216014     0.20000
C1004       C  0.85929335  0.21261480  0.56721219     0.02100
C1005       C  0.86363272  0.19861942  0.56308372    -0.13900
C1006       C  0.85511491  0.19022932  0.55401610    -0.11600
C1007       C  0.84199920  0.19544196  0.54877136     0.01700
C1008       C  0.83736024  0.20917926  0.55299246    -0.23800
H1009       H  0.89913059  0.22257472  0.59538050     0.09700
H1010       H  0.88683134  0.20788068  0.57813532     0.13200
H1011       H  0.86483877  0.25351707  0.59483274     0.12000
H1012       H  0.84436317  0.25011684  0.57904290     0.13200
H1013       H  0.83050128  0.23526999  0.56248240     0.12200
H1014       H  0.87349222  0.19377498  0.56676229     0.09300
H1015       H  0.85890639  0.17961754  0.55101915     0.12500
H1016       H  0.82720608  0.21332817  0.54903141     0.14400
C1017       C  0.91408724  0.24982475  0.59799590    -0.01100
C1018       C  0.92489203  0.23938437  0.59814638    -0.09100
C1019       C  0.93491823  0.23860243  0.58693630    -0.18000
C1020       C  0.93459827  0.24857586  0.57538757     0.04400
C1021       C  0.92390893  0.25953204  0.57571327     0.18600
C1022       C  0.91360949  0.25984113  0.58678087    -0.19400
C1023       C  0.92364317  0.27019841  0.56507308    -0.20600
C1024       C  0.93383523  0.27030924  0.55411646    -0.19200
C1025       C  0.94424634  0.25946679  0.55322383     0.20000
C1026       C  0.94458595  0.24823946  0.56365386     0.02100
C1027       C  0.95474815  0.23706926  0.56171883    -0.13900
C1028       C  0.96426328  0.23718425  0.55004915    -0.11600
C1029       C  0.96421848  0.24854755  0.54012226     0.01700
C1030       C  0.95421746  0.25969577  0.54182533    -0.23800
H1031       H  0.92540645  0.23169437  0.60690012     0.09700
H1032       H  0.94294357  0.23027263  0.58773876     0.13200
H1033       H  0.90532758  0.26805369  0.58689333     0.12000
H1034       H  0.91559873  0.27863662  0.56533124     0.13200
H1035       H  0.93343906  0.27883448  0.54615234     0.12200
H1036       H  0.95540760  0.22795689  0.56887945     0.09300
H1037       H  0.97184852  0.22840885  0.54888805     0.12500
H1038       H  0.95394802  0.26838554  0.53402361     0.14400
C1039       C  0.90099778  0.26464132  0.39753394    -0.01100
C1040       C  0.90728428  0.25648008  0.38661692    -0.09100
C1041       C  0.91758439  0.26256345  0.37756540    -0.18000
C1042       C  0.92164186  0.27718501  0.37903122     0.04400
C1043       C  0.91534994  0.28528876  0.39041848     0.18600
C1044       C  0.90518792  0.27892056  0.39959746    -0.19400
C1045       C  0.91897777  0.29977729  0.39236274    -0.20600
C1046       C  0.92871552  0.30646910  0.38320126    -0.19200
C1047       C  0.93498906  0.29885477  0.37182203     0.20000
C1048       C  0.93152120  0.28411301  0.36952019     0.02100
C1049       C  0.93796324  0.27703172  0.35768315    -0.13900
C1050       C  0.94748613  0.28425384  0.34860663    -0.11600
C1051       C  0.95100956  0.29870615  0.35105407     0.01700
C1052       C  0.94470520  0.30593872  0.36268727    -0.23800
H1053       H  0.90399396  0.24541103  0.38493858     0.09700
H1054       H  0.92195729  0.25559394  0.36938034     0.13200
H1055       H  0.90010506  0.28521345  0.40802323     0.12000
H1056       H  0.91419251  0.30600190  0.40099422     0.13200
H1057       H  0.93129294  0.31771640  0.38497612     0.12200
H1058       H  0.93586211  0.26590782  0.35509632     0.09300
H1059       H  0.95228141  0.27840367  0.33973582     0.12500
H1060       H  0.94732001  0.31715877  0.36462577     0.14400
C1061       C  0.87102379  0.24199370  0.43564352    -0.01100
C1062       C  0.87912531  0.23051908  0.44105846    -0.09100
C1063       C  0.87364749  0.22174269  0.45197840    -0.18000
C1064       C  0.85976602  0.22416011  0.45774208     0.04400
C1065       C  0.85189094  0.23623034  0.45257325     0.18600
C1066       C  0.85753745  0.24492988  0.44161476    -0.19400
C1067       C  0.83827169  0.23937701  0.45811732    -0.20600
C1068       C  0.83216501  0.23067152  0.46861191    -0.19200
C1069       C  0.83944002  0.21848916  0.47365068     0.20000
C1070       C  0.85331717  0.21498055  0.46827618     0.02100
C1071       C  0.85996475  0.20230155  0.47349823    -0.13900
C1072       C  0.85314789  0.19358609  0.48370363    -0.11600
C1073       C  0.83955511  0.19722770  0.48907947     0.01700
C1074       C  0.83279858  0.20971881  0.48397507    -0.23800
H1075       H  0.88945357  0.22786777  0.43638994     0.09700
H1076       H  0.88042907  0.21301940  0.45548748     0.13200
H1077       H  0.85125644  0.25384102  0.43743363     0.12000
H1078       H  0.83226059  0.24859960  0.45425209     0.13200
H1079       H  0.82157984  0.23338160  0.47267818     0.12200
H1080       H  0.87036164  0.19874797  0.46982206     0.09300
H1081       H  0.85858951  0.18397158  0.48742790     0.12500
H1082       H  0.82223632  0.21262751  0.48797469     0.14400
C1083       C  0.90155310  0.25379756  0.42873110    -0.01100
C1084       C  0.91360807  0.24556809  0.42515255    -0.09100
C1085       C  0.92538413  0.24477898  0.43447268    -0.18000
C1086       C  0.92551949  0.25245709  0.44764509     0.04400
C1087       C  0.91350140  0.26138294  0.45083336     0.18600
C1088       C  0.90156819  0.26174872  0.44152631    -0.19400
C1089       C  0.91348217  0.26988771  0.46327630    -0.20600
C1090       C  0.92513781  0.26970975  0.47267573    -0.19200
C1091       C  0.93689594  0.26064393  0.47014307     0.20000
C1092       C  0.93713899  0.25166869  0.45772600     0.02100
C1093       C  0.94882554  0.24204043  0.45615174    -0.13900
C1094       C  0.95979938  0.24142969  0.46641935    -0.11600
C1095       C  0.95973257  0.25062103  0.47835308     0.01700
C1096       C  0.94831545  0.26030475  0.48009849    -0.23800
H1097       H  0.91374666  0.23948583  0.41520782     0.09700
H1098       H  0.93428052  0.23820848  0.43100165     0.13200
H1099       H  0.89228651  0.26831401  0.44412165     0.12000
H1100       H  0.90442459  0.27681474  0.46570566     0.13200
H1101       H  0.92482599  0.27651333  0.48215090     0.12200
H1102       H  0.94961451  0.23459973  0.44728518     0.09300
H1103       H  0.96851952  0.23384105  0.46492181     0.12500
H1104       H  0.94811665  0.26727635  0.48946453     0.14400
C1105       C  0.02107536  0.64890586  0.29229443    -0.01100
C1106       C  0.02760501  0.65550127  0.28039109    -0.09100
C1107       C  0.03690933  0.64783552  0.27147826    -0.18000
C1108       C  0.03997760  0.63316653  0.27413393     0.04400
C1109       C  0.03328509  0.62649661  0.28619694     0.18600
C1110       C  0.02400374  0.63439207  0.29515456    -0.19400
C1111       C  0.03591827  0.61198640  0.28927929    -0.20600
C1112       C  0.04529727  0.60399022  0.28081138    -0.19200
C1113       C  0.05228559  0.61030598  0.26905224     0.20000
C1114       C  0.04960167  0.62494357  0.26541470     0.02100
C1115       C  0.05695971  0.63078570  0.25342603    -0.13900
C1116       C  0.06706979  0.62266293  0.24589418    -0.11600
C1117       C  0.07003076  0.60843652  0.24985078     0.01700
C1118       C  0.06237314  0.60220712  0.26123717    -0.23800
H1119       H  0.02554907  0.66671821  0.27792935     0.09700
H1120       H  0.04150620  0.65373364  0.26261206     0.13200
H1121       H  0.01892067  0.62916431  0.30427479     0.12000
H1122       H  0.03079293  0.60681396  0.29840058     0.13200
H1123       H  0.04726023  0.59282896  0.28360950     0.12200
H1124       H  0.05545080  0.64170035  0.24980360     0.09300
H1125       H  0.07293613  0.62767041  0.23713845     0.12500
H1126       H  0.06490337  0.59134710  0.26464716     0.14400
C1127       C  0.14433161  0.51472869  0.19927113    -0.01100
C1128       C  0.13052319  0.51761192  0.19396383    -0.09100
C1129       C  0.12176454  0.52791609  0.20051935    -0.18000
C1130       C  0.12664281  0.53582901  0.21258041     0.04400
C1131       C  0.14060323  0.53269535  0.21801116     0.18600
C1132       C  0.14920011  0.52218695  0.21142766    -0.19400
C1133       C  0.14605184  0.54024341  0.22983904    -0.20600
C1134       C  0.13811314  0.55118320  0.23617506    -0.19200
C1135       C  0.12450418  0.55478381  0.23088352     0.20000
C1136       C  0.11839331  0.54699282  0.21921079     0.02100
C1137       C  0.10449012  0.55103599  0.21446763    -0.13900
C1138       C  0.09736195  0.56280697  0.22055623    -0.11600
C1139       C  0.10378726  0.57078058  0.23159137     0.01700
C1140       C  0.11718281  0.56649514  0.23691998    -0.23800
H1141       H  0.12642679  0.51185572  0.18468625     0.09700
H1142       H  0.11132200  0.52955486  0.19577812     0.13200
H1143       H  0.15985459  0.52001633  0.21564575     0.12000
H1144       H  0.15665304  0.53785158  0.23405772     0.13200
H1145       H  0.14276320  0.55704229  0.24513132     0.12200
H1146       H  0.09900007  0.54557451  0.20583796     0.09300
H1147       H  0.08710253  0.56607202  0.21613046     0.12500
H1148       H  0.12213234  0.57261996  0.24554433     0.14400
C1149       C  0.07216888  0.57651396  0.24002767    -0.01100
C1150       C  0.06103503  0.57723287  0.22995367    -0.09100
C1151       C  0.05023911  0.56672771  0.22973101    -0.18000
C1152       C  0.05014025  0.55535293  0.23990189     0.04400
C1153       C  0.06123560  0.55511769  0.25045633     0.18600
C1154       C  0.07226349  0.56544146  0.25019903    -0.19400
C1155       C  0.06120709  0.54466009  0.26129304    -0.20600
C1156       C  0.05032253  0.53443420  0.26198216    -0.19200
C1157       C  0.03945503  0.53411258  0.25157479     0.20000
C1158       C  0.03935985  0.54434501  0.24017014     0.02100
C1159       C  0.02857859  0.54297030  0.22949510    -0.13900
C1160       C  0.01816590  0.53210975  0.23035039    -0.11600
C1161       C  0.01798848  0.52248742  0.24196930     0.01700
C1162       C  0.02869299  0.52354051  0.25250879    -0.23800
H1163       H  0.06087509  0.58584329  0.22208816     0.09700
H1164       H  0.04200023  0.56791923  0.22165732     0.13200
H1165       H  0.08085175  0.56509197  0.25808546     0.12000
H1166       H  0.06956816  0.54450630  0.26942125     0.13200
H1167       H  0.05049783  0.52660750  0.27064184     0.12200
H1168       H  0.02802740  0.55001030  0.22028088     0.09300
H1169       H  0.01001618  0.53143605  0.22204301     0.12500
H1170       H  0.02875368  0.51595737  0.26139562     0.14400
C1171       C  0.06374198  0.37388783  0.26072645    -0.01100
C1172       C  0.05953878  0.36006937  0.25651361    -0.09100
C1173       C  0.04846608  0.35291197  0.26366493    -0.18000
C1174       C  0.04141873  0.35931841  0.27554122     0.04400
C1175       C  0.04543400  0.37358794  0.27943664     0.18600
C1176       C  0.05646302  0.38073562  0.27198222    -0.19400
C1177       C  0.03876471  0.38045588  0.29105648    -0.20600
C1178       C  0.02842363  0.37332013  0.29917030    -0.19200
C1179       C  0.02454730  0.35912699  0.29589229     0.20000
C1180       C  0.03084913  0.35195805  0.28393058     0.02100
C1181       C  0.02652069  0.33762370  0.28110596    -0.13900
C1182       C  0.01651298  0.33067980  0.28988575    -0.11600
C1183       C  0.01050818  0.33771530  0.30177748     0.01700
C1184       C  0.01451249  0.35199008  0.30464821    -0.23800
H1185       H  0.06507738  0.35465007  0.24779780     0.09700
H1186       H  0.04593948  0.34226339  0.25983305     0.13200
H1187       H  0.05991262  0.39132268  0.27548068     0.12000
H1188       H  0.04172748  0.39134944  0.29402976     0.13200
H1189       H  0.02358348  0.37886986  0.30821903     0.12200
H1190       H  0.03072099  0.33141513  0.27226596     0.09300
H1191       H  0.01355899  0.31967216  0.28739484     0.12500
H1192       H  0.00980029  0.35760101  0.31373347     0.14400
C1193       C  0.09929942  0.40869245  0.24071723    -0.01100
C1194       C  0.09349564  0.41524855  0.22848343    -0.09100
C1195       C  0.10141166  0.42551183  0.22085745    -0.18000
C1196       C  0.11546868  0.42937906  0.22526195     0.04400
C1197       C  0.12073372  0.42349756  0.23837878     0.18600
C1198       C  0.11267132  0.41320454  0.24589085    -0.19400
C1199       C  0.13426799  0.42745080  0.24361625    -0.20600
C1200       C  0.14298730  0.43673947  0.23580810    -0.19200
C1201       C  0.13848471  0.44204896  0.22245145     0.20000
C1202       C  0.12465075  0.43850368  0.21697342     0.02100
C1203       C  0.12085512  0.44381898  0.20321497    -0.13900
C1204       C  0.13036866  0.45235793  0.19530639    -0.11600
C1205       C  0.14390484  0.45596088  0.20085260     0.01700
C1206       C  0.14786130  0.45075322  0.21445399    -0.23800
H1207       H  0.08317030  0.41183858  0.22431043     0.09700
H1208       H  0.09639720  0.42993091  0.21137756     0.13200
H1209       H  0.11706703  0.40820203  0.25548716     0.12000
H1210       H  0.13823857  0.42313657  0.25370633     0.13200
H1211       H  0.15348743  0.43948605  0.24007144     0.12200
H1212       H  0.11069170  0.44142683  0.19818249     0.09300
H1213       H  0.12701162  0.45629788  0.18485752     0.12500
H1214       H  0.15831467  0.45345601  0.21887125     0.14400
C1215       C  0.01546218  0.46093845  0.24611035    -0.01100
C1216       C  0.01520891  0.45011128  0.23562279    -0.09100
C1217       C  0.02512820  0.43879326  0.23600752    -0.18000
C1218       C  0.03585277  0.43812392  0.24680972     0.04400
C1219       C  0.03633459  0.44944284  0.25711165     0.18600
C1220       C  0.02604559  0.46050741  0.25683194    -0.19400
C1221       C  0.04716105  0.44974459  0.26757253    -0.20600
C1222       C  0.05765879  0.43910546  0.26796457    -0.19200
C1223       C  0.05734190  0.42765874  0.25818286     0.20000
C1224       C  0.04624185  0.42679397  0.24766068     0.02100
C1225       C  0.04596434  0.41454270  0.23859049    -0.13900
C1226       C  0.05642377  0.40380615  0.23977181    -0.11600
C1227       C  0.06758684  0.40508344  0.24974551     0.01700
C1228       C  0.06803301  0.41699878  0.25891331    -0.23800
H1229       H  0.00715119  0.45027150  0.22720076     0.09700
H1230       H  0.02427477  0.43086442  0.22757999     0.13200
H1231       H  0.02645061  0.46899773  0.26484015     0.12000
H1232       H  0.04762574  0.45838655  0.27540181     0.13200
H1233       H  0.06601094  0.43976031  0.27607716     0.12200
H1234       H  0.03769459  0.41285071  0.23064321     0.09300
H1235       H  0.05597659  0.39453278  0.23271707     0.12500
H1236       H  0.07662332  0.41778470  0.26676576     0.14400
C1237       C  0.90750944  0.61062764  0.25846249    -0.01100
C1238       C  0.91504363  0.60350105  0.26937215    -0.09100
C1239       C  0.92613940  0.61044425  0.27677220    -0.18000
C1240       C  0.92996198  0.62483974  0.27348179     0.04400
C1241       C  0.92269795  0.63170745  0.26189034     0.18600
C1242       C  0.91155303  0.62461554  0.25461269    -0.19400
C1243       C  0.92635899  0.64574118  0.25782045    -0.20600
C1244       C  0.93696576  0.65325875  0.26517774    -0.19200
C1245       C  0.94398039  0.64702177  0.27694952     0.20000
C1246       C  0.94055494  0.63274856  0.28134599     0.02100
C1247       C  0.94766212  0.62717473  0.29360110    -0.13900
C1248       C  0.95783112  0.63537798  0.30103571    -0.11600
C1249       C  0.96134750  0.64933852  0.29648460     0.01700
C1250       C  0.95434428  0.65507086  0.28442154    -0.23800
H1251       H  0.91194599  0.59275021  0.27265277     0.09700
H1252       H  0.93135975  0.60433866  0.28513593     0.13200
H1253       H  0.90576401  0.63010862  0.24608857     0.12000
H1254       H  0.92091934  0.65097735  0.24892542     0.13200
H1255       H  0.93953966  0.66412700  0.26177402     0.12200
H1256       H  0.94551334  0.61657100  0.29779865     0.09300
H1257       H  0.96307973  0.63067039  0.31032139     0.12500
H1258       H  0.95690851  0.66588915  0.28083979     0.14400
C1259       C  0.87233192  0.57620540  0.23685103    -0.01100
C1260       C  0.85841342  0.57212768  0.24082700    -0.09100
C1261       C  0.85099699  0.56161168  0.23312463    -0.18000
C1262       C  0.85724520  0.55498799  0.22093142     0.04400
C1263       C  0.87165734  0.55870446  0.21735106     0.18600
C1264       C  0.87905670  0.56919697  0.22533668    -0.19400
C1265       C  0.87840279  0.55234659  0.20548418    -0.20600
C1266       C  0.87099074  0.54269034  0.19679104    -0.19200
C1267       C  0.85664028  0.53920659  0.19972592     0.20000
C1268       C  0.84959106  0.54516139  0.21193016     0.02100
C1269       C  0.83508056  0.54128184  0.21437866    -0.13900
C1270       C  0.82788925  0.53196499  0.20506740    -0.11600
C1271       C  0.83485245  0.52619767  0.19301637     0.01700
C1272       C  0.84925816  0.52985766  0.19043699    -0.23800
H1273       H  0.85308879  0.57738805  0.24977092     0.09700
H1274       H  0.84028151  0.55919956  0.23679608     0.13200
H1275       H  0.88972481  0.57250951  0.22201231     0.12000
H1276       H  0.88941316  0.55505181  0.20275905     0.13200
H1277       H  0.87645410  0.53809289  0.18756550     0.12200
H1278       H  0.82893434  0.54528308  0.22334684     0.09300
H1279       H  0.81679841  0.52923584  0.20737816     0.12500
H1280       H  0.85481574  0.52533694  0.18122483     0.14400
C1281       C  0.90388369  0.57965904  0.24693064    -0.01100
C1282       C  0.91561007  0.58132980  0.23768581    -0.09100
C1283       C  0.92637070  0.57085966  0.23704236    -0.18000
C1284       C  0.92582299  0.55848839  0.24594900     0.04400
C1285       C  0.91400675  0.55712026  0.25560270     0.18600
C1286       C  0.90305779  0.56752929  0.25579124    -0.19400
C1287       C  0.91325191  0.54545225  0.26510541    -0.20600
C1288       C  0.92401127  0.53507426  0.26528744    -0.19200
C1289       C  0.93560059  0.53590258  0.25571064     0.20000
C1290       C  0.93659134  0.54750027  0.24573684     0.02100
C1291       C  0.94819674  0.54743951  0.23586289    -0.13900
C1292       C  0.95829625  0.53630066  0.23587820    -0.11600
C1293       C  0.95738010  0.52512645  0.24592629     0.01700
C1294       C  0.94611983  0.52505533  0.25591539    -0.23800
H1295       H  0.91632711  0.59075373  0.23084905     0.09700
H1296       H  0.93507528  0.57287627  0.22965498     0.13200
H1297       H  0.89400112  0.56642881  0.26306315     0.12000
H1298       H  0.90433033  0.54441012  0.27254621     0.13200
H1299       H  0.92316254  0.52622475  0.27285519     0.12200
H1300       H  0.94961022  0.55567945  0.22781616     0.09300
H1301       H  0.96697867  0.53649899  0.22809725     0.12500
H1302       H  0.94532397  0.51628209  0.26359325     0.14400
C1303       C  0.90047537  0.38059009  0.26372724    -0.01100
C1304       C  0.90634425  0.38724288  0.27587658    -0.09100
C1305       C  0.91669205  0.38018225  0.28415946    -0.18000
C1306       C  0.92144406  0.36618508  0.28045299     0.04400
C1307       C  0.91585049  0.35984050  0.26768391     0.18600
C1308       C  0.90539688  0.36701314  0.25956825    -0.19400
C1309       C  0.92052574  0.34626470  0.26319074    -0.20600
C1310       C  0.93052659  0.33867576  0.27124396    -0.19200
C1311       C  0.93589459  0.34438773  0.28409637     0.20000
C1312       C  0.93142413  0.35819213  0.28895903     0.02100
C1313       C  0.93696202  0.36323295  0.30222693    -0.13900
C1314       C  0.94667496  0.35497126  0.31018462    -0.11600
C1315       C  0.95116497  0.34146798  0.30520048     0.01700
C1316       C  0.94567813  0.33626505  0.29215480    -0.23800
H1317       H  0.90255349  0.39773352  0.27927281     0.09700
H1318       H  0.92064944  0.38589679  0.29344296     0.13200
H1319       H  0.90091368  0.36194845  0.25004639     0.12000
H1320       H  0.91637002  0.34145132  0.25340617     0.13200
H1321       H  0.93393666  0.32816437  0.26749235     0.12200
H1322       H  0.93392241  0.37344715  0.30680445     0.09300
H1323       H  0.95070817  0.35921313  0.32026869     0.12500
H1324       H  0.94904381  0.32581535  0.28818391     0.14400
C1325       C  0.86901928  0.41564283  0.23834244    -0.01100
C1326       C  0.87746739  0.42271350  0.22809319    -0.09100
C1327       C  0.87173228  0.43387471  0.21987583    -0.18000
C1328       C  0.85720887  0.43809816  0.22153740     0.04400
C1329       C  0.84890377  0.43119814  0.23239778     0.18600
C1330       C  0.85486204  0.42009075  0.24063805    -0.19400
C1331       C  0.83455716  0.43507469  0.23466570    -0.20600
C1332       C  0.82805416  0.44533685  0.22599288    -0.19200
C1333       C  0.83573291  0.45186269  0.21480432     0.20000
C1334       C  0.85047648  0.44851642  0.21251434     0.02100
C1335       C  0.85767510  0.45539672  0.20099241    -0.13900
C1336       C  0.85040415  0.46483744  0.19188947    -0.11600
C1337       C  0.83582185  0.46785086  0.19405345     0.01700
C1338       C  0.82862211  0.46150424  0.20567838    -0.23800
H1339       H  0.88837655  0.41923375  0.22599061     0.09700
H1340       H  0.87883845  0.43868844  0.21208127     0.13200
H1341       H  0.84835224  0.41459553  0.24863220     0.12000
H1342       H  0.82823845  0.42992761  0.24302135     0.13200
H1343       H  0.81684313  0.44794371  0.22783938     0.12200
H1344       H  0.86885446  0.45358069  0.19857660     0.09300
H1345       H  0.85626333  0.46980904  0.18311423     0.12500
H1346       H  0.81734761  0.46386175  0.20750809     0.14400
C1347       C  0.89874949  0.41181095  0.25249143    -0.01100
C1348       C  0.89620008  0.42530794  0.25867115    -0.09100
C1349       C  0.90692036  0.43588990  0.25872709    -0.18000
C1350       C  0.92053243  0.43327294  0.25239973     0.04400
C1351       C  0.92291017  0.41954947  0.24600930     0.18600
C1352       C  0.91213944  0.40897115  0.24629145    -0.19400
C1353       C  0.93593037  0.41651842  0.23911830    -0.20600
C1354       C  0.94662130  0.42691675  0.23816737    -0.19200
C1355       C  0.94470480  0.44048739  0.24440107     0.20000
C1356       C  0.93178030  0.44379519  0.25191886     0.02100
C1357       C  0.93077874  0.45744225  0.25866067    -0.13900
C1358       C  0.94205574  0.46739506  0.25774962    -0.11600
C1359       C  0.95444279  0.46419699  0.24983508     0.01700
C1360       C  0.95571085  0.45076922  0.24318367    -0.23800
H1361       H  0.88581922  0.42765436  0.26340453     0.09700
H1362       H  0.90414751  0.44607984  0.26353073     0.13200
H1363       H  0.91397112  0.39858869  0.24127989     0.12000
H1364       H  0.93777577  0.40608759  0.23421971     0.13200
H1365       H  0.95650297  0.42429737  0.23256062     0.12200
H1366       H  0.92151356  0.46065693  0.26484390     0.09300
H1367       H  0.94098937  0.47775261  0.26301456     0.12500
H1368       H  0.96543745  0.44824474  0.23724649     0.14400
C1369       C  0.73553473  0.61033691  0.06751801    -0.01100
C1370       C  0.73943541  0.62405869  0.06285925    -0.09100
C1371       C  0.73150538  0.63102259  0.05228213    -0.18000
C1372       C  0.71912253  0.62451544  0.04627512     0.04400
C1373       C  0.71547336  0.61033772  0.05077524     0.18600
C1374       C  0.72380897  0.60331156  0.06121749    -0.19400
C1375       C  0.70322097  0.60352304  0.04526614    -0.20600
C1376       C  0.69427195  0.61064983  0.03561518    -0.19200
C1377       C  0.69743026  0.62471294  0.03119116     0.20000
C1378       C  0.71001609  0.63175796  0.03632420     0.02100
C1379       C  0.71283656  0.64588210  0.03147873    -0.13900
C1380       C  0.70352377  0.65276792  0.02208244    -0.11600
C1381       C  0.69108157  0.64589319  0.01710415     0.01700
C1382       C  0.68806573  0.63183331  0.02168949    -0.23800
H1383       H  0.74848430  0.62958094  0.06772417     0.09700
H1384       H  0.73514877  0.64164497  0.04943162     0.13200
H1385       H  0.72065196  0.59275113  0.06508196     0.12000
H1386       H  0.70039953  0.59270956  0.04864600     0.13200
H1387       H  0.68475112  0.60517644  0.03168875     0.12200
H1388       H  0.72213502  0.65198289  0.03469169     0.09300
H1389       H  0.70617303  0.66361370  0.01868680     0.12500
H1390       H  0.67850993  0.62638987  0.01779477     0.14400
C1391       C  0.75750035  0.57651634  0.10246111    -0.01100
C1392       C  0.76914564  0.56949910  0.09606508    -0.09100
C1393       C  0.77629448  0.55850776  0.10336268    -0.18000
C1394       C  0.77201050  0.55436895  0.11739423     0.04400
C1395       C  0.75972090  0.56116263  0.12346496     0.18600
C1396       C  0.75264343  0.57211500  0.11598019    -0.19400
C1397       C  0.75480988  0.55733056  0.13716191    -0.20600
C1398       C  0.76213161  0.54715373  0.14523840    -0.19200
C1399       C  0.77458536  0.54068824  0.13983312     0.20000
C1400       C  0.77966728  0.54407102  0.12579103     0.02100
C1401       C  0.79241268  0.53730554  0.12097360    -0.13900
C1402       C  0.79990387  0.52780970  0.12985262    -0.11600
C1403       C  0.79488207  0.52465918  0.14370736     0.01700
C1404       C  0.78212971  0.53101796  0.14854922    -0.23800
H1405       H  0.77312596  0.57291429  0.08565147     0.09700
H1406       H  0.78529983  0.55371993  0.09786591     0.13200
H1407       H  0.74351916  0.57753173  0.12084328     0.12000
H1408       H  0.74537591  0.56241459  0.14175780     0.13200
H1409       H  0.75818865  0.54453664  0.15590848     0.12200
H1410       H  0.79698468  0.53924072  0.11049402     0.09300
H1411       H  0.80965493  0.52287782  0.12581043     0.12500
H1412       H  0.77813319  0.52860901  0.15925443     0.14400
C1413       C  0.74810488  0.57985727  0.07081906    -0.01100
C1414       C  0.75665046  0.58207650  0.05863979    -0.09100
C1415       C  0.75792939  0.57138456  0.04812196    -0.18000
C1416       C  0.75041901  0.55817048  0.04940578     0.04400
C1417       C  0.74138607  0.55624232  0.06163166     0.18600
C1418       C  0.74051019  0.56694831  0.07227868    -0.19400
C1419       C  0.73320051  0.54368494  0.06312069    -0.20600
C1420       C  0.73364701  0.53300622  0.05264789    -0.19200
C1421       C  0.74260303  0.53442651  0.04062117     0.20000
C1422       C  0.75137269  0.54688310  0.03895735     0.02100
C1423       C  0.76080175  0.54738383  0.02699651    -0.13900
C1424       C  0.76130207  0.53609892  0.01703948    -0.11600
C1425       C  0.75223825  0.52414694  0.01847886     0.01700
C1426       C  0.74289417  0.52338791  0.03027168    -0.23800
H1427       H  0.76252702  0.59207604  0.05741306     0.09700
H1428       H  0.76470664  0.57385072  0.03903668     0.13200
H1429       H  0.73377124  0.56537729  0.08167677     0.12000
H1430       H  0.72625944  0.54218510  0.07237799     0.13200
H1431       H  0.72702993  0.52349208  0.05403701     0.12200
H1432       H  0.76805507  0.55625025  0.02514860     0.09300
H1433       H  0.76861941  0.53685162  0.00798953     0.12500
H1434       H  0.73601590  0.51403050  0.03152640     0.14400
C1435       C  0.75031076  0.37465978  0.06544594    -0.01100
C1436       C  0.75443212  0.36130679  0.05986185    -0.09100
C1437       C  0.74656041  0.35486207  0.04880030    -0.18000
C1438       C  0.73407978  0.36153797  0.04318037     0.04400
C1439       C  0.73018286  0.37526565  0.04874444     0.18600
C1440       C  0.73831278  0.38167313  0.05971205    -0.19400
C1441       C  0.71795068  0.38236789  0.04363753    -0.20600
C1442       C  0.70933668  0.37606470  0.03319283    -0.19200
C1443       C  0.71271742  0.36248397  0.02763631     0.20000
C1444       C  0.72515919  0.35501414  0.03248358     0.02100
C1445       C  0.72796750  0.34127127  0.02655169    -0.13900
C1446       C  0.71879546  0.33524339  0.01628514    -0.11600
C1447       C  0.70653517  0.34265461  0.01158041     0.01700
C1448       C  0.70360963  0.35629600  0.01730773    -0.23800
H1449       H  0.76365761  0.35571194  0.06427062     0.09700
H1450       H  0.75036005  0.34455226  0.04510131     0.13200
H1451       H  0.73483282  0.39181786  0.06430709     0.12000
H1452       H  0.71494784  0.39283047  0.04784704     0.13200
H1453       H  0.69987773  0.38180846  0.02952335     0.12200
H1454       H  0.73711316  0.33486921  0.02964923     0.09300
H1455       H  0.72131899  0.32467178  0.01205778     0.12500
H1456       H  0.69417768  0.36215536  0.01373994     0.14400
C1457       C  0.76792885  0.40854422  0.10288420    -0.01100
C1458       C  0.76176885  0.41143914  0.11629202    -0.09100
C1459       C  0.76642863  0.42309191  0.12449511    -0.18000
C1460       C  0.77770730  0.43206714  0.11960289     0.04400
C1461       C  0.78382929  0.42910223  0.10587272     0.18600
C1462       C  0.77875592  0.41754190  0.09757822    -0.19400
C1463       C  0.79534680  0.43733330  0.10074985    -0.20600
C1464       C  0.80128764  0.44814828  0.10919725    -0.19200
C1465       C  0.79564234  0.45118987  0.12282853     0.20000
C1466       C  0.78350715  0.44349061  0.12806880     0.02100
C1467       C  0.77786236  0.44742997  0.14165123    -0.13900
C1468       C  0.78437636  0.45813273  0.14991560    -0.11600
C1469       C  0.79670292  0.46523954  0.14496512     0.01700
C1470       C  0.80216431  0.46183009  0.13131875    -0.23800
H1471       H  0.75339969  0.40450532  0.12053290     0.09700
H1472       H  0.76130317  0.42446872  0.13480081     0.13200
H1473       H  0.78374570  0.41509544  0.08731478     0.12000
H1474       H  0.80003795  0.43514127  0.09029340     0.13200
H1475       H  0.81043865  0.45410299  0.10508345     0.12200
H1476       H  0.76841605  0.44248547  0.14619885     0.09300
H1477       H  0.77979613  0.46073901  0.16031715     0.12500
H1478       H  0.81152963  0.46748438  0.12725091     0.14400
C1479       C  0.75678826  0.46234822  0.01890925    -0.01100
C1480       C  0.76744919  0.45182153  0.01747798    -0.09100
C1481       C  0.76865645  0.44066499  0.02751080    -0.18000
C1482       C  0.75934818  0.43985629  0.03954539     0.04400
C1483       C  0.74902299  0.45101471  0.04132822     0.18600
C1484       C  0.74763232  0.46192513  0.03088951    -0.19400
C1485       C  0.74015541  0.45121035  0.05351353    -0.20600
C1486       C  0.74119570  0.44046760  0.06391658    -0.19200
C1487       C  0.75081848  0.42901113  0.06218808     0.20000
C1488       C  0.75992442  0.42843211  0.04987971     0.02100
C1489       C  0.76894166  0.41625916  0.04828867    -0.13900
C1490       C  0.76890032  0.40519462  0.05847823    -0.11600
C1491       C  0.76014902  0.40599499  0.07067651     0.01700
C1492       C  0.75121506  0.41797099  0.07256785    -0.23800
H1493       H  0.77470173  0.45203882  0.00834769     0.09700
H1494       H  0.77708314  0.43293096  0.02563126     0.13200
H1495       H  0.73954668  0.47023846  0.03218487     0.12000
H1496       H  0.73238553  0.45977103  0.05503836     0.13200
H1497       H  0.73421189  0.44097232  0.07324692     0.12200
H1498       H  0.77590339  0.41481008  0.03913061     0.09300
H1499       H  0.77581036  0.39594230  0.05691135     0.12500
H1500       H  0.74431353  0.41845224  0.08196348     0.14400
C1501       C  0.72907294  0.60560557  0.90655593    -0.01100
C1502       C  0.71721273  0.59869510  0.91269746    -0.09100
C1503       C  0.70921554  0.60548359  0.92349474    -0.18000
C1504       C  0.71295311  0.61943875  0.92842401     0.04400
C1505       C  0.72557862  0.62591294  0.92267573     0.18600
C1506       C  0.73341293  0.61900443  0.91181812    -0.19400
C1507       C  0.73006563  0.63947902  0.92741351    -0.20600
C1508       C  0.72203091  0.64703775  0.93746711    -0.19200
C1509       C  0.70923206  0.64127941  0.94289956     0.20000
C1510       C  0.70451577  0.62736298  0.93856078     0.02100
C1511       C  0.69139834  0.62219350  0.94429915    -0.13900
C1512       C  0.68332748  0.63052676  0.95387161    -0.11600
C1513       C  0.68804140  0.64423804  0.95807990     0.01700
C1514       C  0.70105476  0.64948573  0.95256612    -0.23800
H1515       H  0.71370308  0.58833427  0.90864137     0.09700
H1516       H  0.70001955  0.59968538  0.92752973     0.13200
H1517       H  0.74267271  0.62428746  0.90704955     0.12000
H1518       H  0.73975742  0.64437795  0.92315086     0.13200
H1519       H  0.72571802  0.65759654  0.94081154     0.12200
H1520       H  0.68702374  0.61181445  0.94151739     0.09300
H1521       H  0.67336505  0.62614897  0.95804730     0.12500
H1522       H  0.70487509  0.66004039  0.95578669     0.14400
C1523       C  0.75417505  0.57437676  0.87088033    -0.01100
C1524       C  0.75140749  0.57056290  0.85659091    -0.09100
C1525       C  0.76081149  0.56164376  0.84907698    -0.18000
C1526       C  0.77351461  0.55644149  0.85562369     0.04400
C1527       C  0.77583587  0.55969100  0.87040812     0.18600
C1528       C  0.76618387  0.56859125  0.87787754    -0.19400
C1529       C  0.78805172  0.55448930  0.87749474    -0.20600
C1530       C  0.79822962  0.54639134  0.87011824    -0.19200
C1531       C  0.79652681  0.54346593  0.85543606     0.20000
C1532       C  0.78413188  0.54842591  0.84796918     0.02100
C1533       C  0.78307842  0.54543812  0.83308512    -0.13900
C1534       C  0.79374047  0.53765695  0.82600080    -0.11600
C1535       C  0.80582488  0.53259022  0.83343563     0.01700
C1536       C  0.80718840  0.53562280  0.84815542    -0.23800
H1537       H  0.74209920  0.57487840  0.85105873     0.09700
H1538       H  0.75796279  0.55929542  0.83808616     0.13200
H1539       H  0.76853607  0.57172196  0.88886514     0.12000
H1540       H  0.78983006  0.55684089  0.88878593     0.13200
H1541       H  0.80761956  0.54258643  0.87588762     0.12200
H1542       H  0.77419095  0.54899486  0.82655917     0.09300
H1543       H  0.79240452  0.53548087  0.81462129     0.12500
H1544       H  0.81646472  0.53169639  0.85403627     0.14400
C1545       C  0.74855157  0.52270923  0.95723775    -0.01100
C1546       C  0.73914933  0.52015458  0.94576720    -0.09100
C1547       C  0.73793174  0.53005325  0.93449002    -0.18000
C1548       C  0.74585525  0.54307494  0.93457664     0.04400
C1549       C  0.75498340  0.54580940  0.94656819     0.18600
C1550       C  0.75652848  0.53548797  0.95753846    -0.19400
C1551       C  0.76233560  0.55892043  0.94765719    -0.20600
C1552       C  0.76064546  0.56951113  0.93720671    -0.19200
C1553       C  0.75198694  0.56705120  0.92513462     0.20000
C1554       C  0.74479965  0.55363016  0.92340538     0.02100
C1555       C  0.73699001  0.55135203  0.91051584    -0.13900
C1556       C  0.73601495  0.56213171  0.90004891    -0.11600
C1557       C  0.74253934  0.57552022  0.90219605     0.01700
C1558       C  0.75053893  0.57792128  0.91471174    -0.23800
H1559       H  0.73288285  0.51031659  0.94541038     0.09700
H1560       H  0.73046385  0.52737258  0.92603074     0.13200
H1561       H  0.76365462  0.53755841  0.96655055     0.12000
H1562       H  0.76923252  0.56111147  0.95680555     0.13200
H1563       H  0.76626521  0.57965803  0.93850959     0.12200
H1564       H  0.73172888  0.54128770  0.90812193     0.09300
H1565       H  0.72999846  0.56011022  0.89027312     0.12500
H1566       H  0.75585367  0.58821766  0.91614593     0.14400
C1567       C  0.74070974  0.38494160  0.89724859    -0.01100
C1568       C  0.74435572  0.37061079  0.90004402    -0.09100
C1569       C  0.73738237  0.36285153  0.91083648    -0.18000
C1570       C  0.72627719  0.36917928  0.91910159     0.04400
C1571       C  0.72262745  0.38377642  0.91621055     0.18600
C1572       C  0.72990687  0.39152183  0.90542676    -0.19400
C1573       C  0.71152366  0.39045289  0.92387947    -0.20600
C1574       C  0.70381401  0.38289582  0.93426273    -0.19200
C1575       C  0.70709436  0.36850631  0.93733412     0.20000
C1576       C  0.71848699  0.36148215  0.92991522     0.02100
C1577       C  0.72152658  0.34703020  0.93360046    -0.13900
C1578       C  0.71348577  0.33982929  0.94402878    -0.11600
C1579       C  0.70211896  0.34669127  0.95117634     0.01700
C1580       C  0.69901953  0.36108231  0.94778813    -0.23800
H1581       H  0.75262379  0.36533267  0.89374369     0.09700
H1582       H  0.74077597  0.35185612  0.91223173     0.13200
H1583       H  0.72678869  0.40251252  0.90303340     0.12000
H1584       H  0.70867618  0.40156438  0.92172417     0.13200
H1585       H  0.69519161  0.38834380  0.93991228     0.12200
H1586       H  0.73007699  0.34096242  0.92867860     0.09300
H1587       H  0.71622011  0.32875690  0.94647308     0.12500
H1588       H  0.69034671  0.36656248  0.95333580     0.14400
C1589       C  0.76407625  0.42195757  0.86576318    -0.01100
C1590       C  0.76025429  0.42730747  0.85222274    -0.09100
C1591       C  0.76833722  0.43806576  0.84560753    -0.18000
C1592       C  0.78077631  0.44372611  0.85228016     0.04400
C1593       C  0.78421974  0.43879202  0.86637145     0.18600
C1594       C  0.77585501  0.42799931  0.87298881    -0.19400
C1595       C  0.79623550  0.44435231  0.87356142    -0.20600
C1596       C  0.80503888  0.45455372  0.86697654    -0.19200
C1597       C  0.80217207  0.45930891  0.85295301     0.20000
C1598       C  0.79001438  0.45392217  0.84538700     0.02100
C1599       C  0.78779597  0.45875051  0.83112374    -0.13900
C1600       C  0.79707550  0.46866741  0.82475360    -0.11600
C1601       C  0.80891310  0.47417673  0.83228677     0.01700
C1602       C  0.81143218  0.46937910  0.84640410    -0.23800
H1603       H  0.75110577  0.42284992  0.84653060     0.09700
H1604       H  0.76466717  0.44152288  0.83517028     0.13200
H1605       H  0.77898401  0.42377500  0.88340720     0.12000
H1606       H  0.79890524  0.44070958  0.88432134     0.13200
H1607       H  0.81427347  0.45861076  0.87282893     0.12200
H1608       H  0.77904393  0.45501690  0.82451504     0.09300
H1609       H  0.79486641  0.47209436  0.81382674     0.12500
H1610       H  0.82056757  0.47352943  0.85235339     0.14400
C1611       C  0.75318846  0.41577608  0.89696282    -0.01100
C1612       C  0.76025441  0.41157266  0.90956240    -0.09100
C1613       C  0.76053372  0.42058594  0.92159330    -0.18000
C1614       C  0.75353314  0.43411288  0.92141807     0.04400
C1615       C  0.74605161  0.43813149  0.90866460     0.18600
C1616       C  0.74617827  0.42908919  0.89652429    -0.19400
C1617       C  0.73830177  0.45103599  0.90818671    -0.20600
C1618       C  0.73767802  0.46000290  0.92016164    -0.19200
C1619       C  0.74518110  0.45652936  0.93275702     0.20000
C1620       C  0.75350642  0.44369959  0.93347297     0.02100
C1621       C  0.76164170  0.44119468  0.94612213    -0.13900
C1622       C  0.76140936  0.45097550  0.95756726    -0.11600
C1623       C  0.75277569  0.46326943  0.95694787     0.01700
C1624       C  0.74461158  0.46595753  0.94458106    -0.23800
H1625       H  0.76556987  0.40121008  0.91005687     0.09700
H1626       H  0.76604594  0.41653702  0.93095899     0.13200
H1627       H  0.74047462  0.43217079  0.88682230     0.12000
H1628       H  0.73251291  0.45412371  0.89854056     0.13200
H1629       H  0.73143327  0.46983374  0.91949889     0.12200
H1630       H  0.76856104  0.43197136  0.94734799     0.09300
H1631       H  0.76791559  0.44887222  0.96701335     0.12500
H1632       H  0.73817789  0.47568461  0.94399727     0.14400
C1633       C  0.09281971  0.62338574  0.74111918    -0.01100
C1634       C  0.08717374  0.63668640  0.74523539    -0.09100
C1635       C  0.07726889  0.64379996  0.73654752    -0.18000
C1636       C  0.07293242  0.63791550  0.72319018     0.04400
C1637       C  0.07818811  0.62404575  0.71938579     0.18600
C1638       C  0.08802060  0.61689146  0.72838799    -0.19400
C1639       C  0.07393918  0.61762899  0.70642560    -0.20600
C1640       C  0.06471223  0.62478510  0.69704404    -0.19200
C1641       C  0.05968113  0.63862074  0.70029303     0.20000
C1642       C  0.06378238  0.64540367  0.71339303     0.02100
C1643       C  0.05880278  0.65953533  0.71598641    -0.13900
C1644       C  0.04991574  0.66651050  0.70616461    -0.11600
C1645       C  0.04559060  0.65971471  0.69341607     0.01700
C1646       C  0.05059459  0.64575945  0.69050248    -0.23800
H1647       H  0.09071811  0.64177212  0.75511869     0.09700
H1648       H  0.07343261  0.65399340  0.74050850     0.13200
H1649       H  0.09252998  0.60664510  0.72509317     0.12000
H1650       H  0.07785747  0.60704111  0.70347763     0.13200
H1651       H  0.06164254  0.61953668  0.68708536     0.12200
H1652       H  0.06161948  0.66558252  0.72546481     0.09300
H1653       H  0.04625195  0.67727991  0.70872954     0.12500
H1654       H  0.04734664  0.64039117  0.68066055     0.14400
C1655       C  0.12646419  0.58940262  0.76508843    -0.01100
C1656       C  0.13998387  0.58490866  0.76039714    -0.09100
C1657       C  0.14684351  0.57331617  0.76695689    -0.18000
C1658       C  0.14044845  0.56606978  0.77873652     0.04400
C1659       C  0.12658630  0.57064739  0.78333725     0.18600
C1660       C  0.11965993  0.58212200  0.77636752    -0.19400
C1661       C  0.11991540  0.56402778  0.79511270    -0.20600
C1662       C  0.12684123  0.55311188  0.80263855    -0.19200
C1663       C  0.14054347  0.54847295  0.79848383     0.20000
C1664       C  0.14746748  0.55473747  0.78634783     0.02100
C1665       C  0.16121587  0.54952461  0.78249324    -0.13900
C1666       C  0.16791658  0.53880240  0.79053030    -0.11600
C1667       C  0.16118571  0.53285252  0.80263915     0.01700
C1668       C  0.14742949  0.53766581  0.80648724    -0.23800
H1669       H  0.14532755  0.59051050  0.75166494     0.09700
H1670       H  0.15727489  0.57056112  0.76275605     0.13200
H1671       H  0.10924167  0.58580229  0.78010747     0.12000
H1672       H  0.10936156  0.56747344  0.79866819     0.13200
H1673       H  0.12148221  0.54833287  0.81184017     0.12200
H1674       H  0.16713074  0.55349272  0.77334780     0.09300
H1675       H  0.17848794  0.53519518  0.78722078     0.12500
H1676       H  0.14206864  0.53305197  0.81577667     0.14400
C1677       C  0.04500541  0.53553480  0.74829645    -0.01100
C1678       C  0.05681683  0.53508763  0.73898819    -0.09100
C1679       C  0.06735335  0.54582269  0.73945596    -0.18000
C1680       C  0.06615186  0.55760047  0.74905781     0.04400
C1681       C  0.05381582  0.55822662  0.75809940     0.18600
C1682       C  0.04360301  0.54706994  0.75789159    -0.19400
C1683       C  0.05163111  0.57007968  0.76714240    -0.20600
C1684       C  0.06137474  0.58143925  0.76731724    -0.19200
C1685       C  0.07380041  0.58099424  0.75883410     0.20000
C1686       C  0.07657138  0.56890579  0.74983551     0.02100
C1687       C  0.08974215  0.56859583  0.74218923    -0.13900
C1688       C  0.09957400  0.57992729  0.74327638    -0.11600
C1689       C  0.09648193  0.59197140  0.75173123     0.01700
C1690       C  0.08359638  0.59249745  0.75944666    -0.23800
H1691       H  0.05800652  0.52626693  0.73144689     0.09700
H1692       H  0.07613436  0.54477472  0.73195749     0.13200
H1693       H  0.03430187  0.54755461  0.76492696     0.12000
H1694       H  0.04219808  0.57067245  0.77397337     0.13200
H1695       H  0.05926743  0.59056086  0.77428301     0.12200
H1696       H  0.09288335  0.55962007  0.73554698     0.09300
H1697       H  0.10965050  0.57936224  0.73745578     0.12500
H1698       H  0.08143900  0.60174563  0.76623323     0.14400
C1699       C  0.09524799  0.38683758  0.73046374    -0.01100
C1700       C  0.09183047  0.37331639  0.73607753    -0.09100
C1701       C  0.08121922  0.36484728  0.72978082    -0.18000
C1702       C  0.07382745  0.36953789  0.71733463     0.04400
C1703       C  0.07700398  0.38352803  0.71191896     0.18600
C1704       C  0.08757550  0.39211225  0.71860764    -0.19400
C1705       C  0.06992517  0.38863337  0.69962643    -0.20600
C1706       C  0.05988744  0.38007364  0.69248622    -0.19200
C1707       C  0.05669391  0.36617394  0.69743556     0.20000
C1708       C  0.06360851  0.36073483  0.70996038     0.02100
C1709       C  0.06012929  0.34662057  0.71447988    -0.13900
C1710       C  0.05010876  0.33834628  0.70704140    -0.11600
C1711       C  0.04316481  0.34372505  0.69480280     0.01700
C1712       C  0.04659223  0.35765981  0.68997841    -0.23800
H1713       H  0.09768525  0.36912109  0.74525364     0.09700
H1714       H  0.07933461  0.35455209  0.73477117     0.13200
H1715       H  0.09036555  0.40254205  0.71414754     0.12000
H1716       H  0.07226731  0.39927102  0.69542400     0.13200
H1717       H  0.05465185  0.38432410  0.68296665     0.12200
H1718       H  0.06491406  0.34159253  0.72375878     0.09300
H1719       H  0.04771547  0.32764514  0.71102874     0.12500
H1720       H  0.04124146  0.36198564  0.68055233     0.14400
C1721       C  0.12840280  0.42281831  0.75252407    -0.01100
C1722       C  0.14170988  0.42850766  0.74848611    -0.09100
C1723       C  0.14833690  0.43911013  0.75676767    -0.18000
C1724       C  0.14193175  0.44414328  0.76963198     0.04400
C1725       C  0.12809225  0.43875545  0.77333918     0.18600
C1726       C  0.12145916  0.42820824  0.76476426    -0.19400
C1727       C  0.12118289  0.44356884  0.78583030    -0.20600
C1728       C  0.12787344  0.45338905  0.79493617    -0.19200
C1729       C  0.14169659  0.45851481  0.79185013     0.20000
C1730       C  0.14890414  0.45402522  0.77911472     0.02100
C1731       C  0.16293788  0.45933160  0.77662310    -0.13900
C1732       C  0.16951858  0.46865730  0.78634806    -0.11600
C1733       C  0.16239636  0.47307952  0.79887445     0.01700
C1734       C  0.14843853  0.46798796  0.80152920    -0.23800
H1735       H  0.14716536  0.42448367  0.73899577     0.09700
H1736       H  0.15859380  0.44290105  0.75293839     0.13200
H1737       H  0.11125142  0.42363593  0.76806664     0.12000
H1738       H  0.11060155  0.43957167  0.78867280     0.13200
H1739       H  0.12229303  0.45680930  0.80459337     0.12200
H1740       H  0.16921536  0.45639674  0.76733449     0.09300
H1741       H  0.18029022  0.47242974  0.78399142     0.12500
H1742       H  0.14278931  0.47137281  0.81116365     0.14400
C1743       C  0.09752567  0.41837705  0.74156513    -0.01100
C1744       C  0.08585501  0.41629545  0.75080401    -0.09100
C1745       C  0.07545429  0.42704322  0.75248001    -0.18000
C1746       C  0.07635226  0.44012699  0.74467501     0.04400
C1747       C  0.08796437  0.44181744  0.73483836     0.18600
C1748       C  0.09852538  0.43110250  0.73360032    -0.19400
C1749       C  0.08894596  0.45415899  0.72625057    -0.20600
C1750       C  0.07848169  0.46480731  0.72701387    -0.19200
C1751       C  0.06705974  0.46361768  0.73675384     0.20000
C1752       C  0.06605158  0.45147864  0.74605260     0.02100
C1753       C  0.05485716  0.45133504  0.75638402    -0.13900
C1754       C  0.04480989  0.46252120  0.75705778    -0.11600
C1755       C  0.04541464  0.47399341  0.74730311     0.01700
C1756       C  0.05661667  0.47452936  0.73724596    -0.23800
H1757       H  0.08503272  0.40645690  0.75701564     0.09700
H1758       H  0.06675982  0.42474338  0.75980473     0.13200
H1759       H  0.10757924  0.43257313  0.72638825     0.12000
H1760       H  0.09774615  0.45547394  0.71870778     0.13200
H1761       H  0.07939697  0.47410700  0.72001506     0.12200
H1762       H  0.05368643  0.44280841  0.76417538     0.09300
H1763       H  0.03628806  0.46200638  0.76499849     0.12500
H1764       H  0.05728482  0.48357527  0.72988005     0.14400
C1765       C  0.93585050  0.62177355  0.73743023    -0.01100
C1766       C  0.94027631  0.63547195  0.74186905    -0.09100
C1767       C  0.95110897  0.64283639  0.73451714    -0.18000
C1768       C  0.95767333  0.63679364  0.72218810     0.04400
C1769       C  0.95355339  0.62259027  0.71812384     0.18600
C1770       C  0.94281918  0.61520000  0.72581434    -0.19400
C1771       C  0.95971586  0.61607837  0.70603185    -0.20600
C1772       C  0.96955604  0.62352451  0.69758354    -0.19200
C1773       C  0.97348173  0.63766844  0.70101559     0.20000
C1774       C  0.96778169  0.64447430  0.71347022     0.02100
C1775       C  0.97218511  0.65878363  0.71640497    -0.13900
C1776       C  0.98165334  0.66605269  0.70722938    -0.11600
C1777       C  0.98705237  0.65934993  0.69485451     0.01700
C1778       C  0.98297026  0.64509831  0.69191080    -0.23800
H1779       H  0.93500924  0.64069473  0.75086861     0.09700
H1780       H  0.95377040  0.65339953  0.73849618     0.13200
H1781       H  0.93924485  0.60471042  0.72215229     0.12000
H1782       H  0.95668501  0.60524472  0.70291447     0.13200
H1783       H  0.97395448  0.61825442  0.68814926     0.12200
H1784       H  0.96844637  0.66470267  0.72564449     0.09300
H1785       H  0.98471370  0.67700351  0.70983470     0.12500
H1786       H  0.98716816  0.63971127  0.68244670     0.14400
C1787       C  0.85712015  0.53598240  0.79496050    -0.01100
C1788       C  0.87082461  0.53934339  0.80026163    -0.09100
C1789       C  0.87980863  0.54891738  0.79289162    -0.18000
C1790       C  0.87529599  0.55557523  0.77994946     0.04400
C1791       C  0.86130668  0.55224550  0.77472850     0.18600
C1792       C  0.85247024  0.54249388  0.78216030    -0.19400
C1793       C  0.85613397  0.55874568  0.76216336    -0.20600
C1794       C  0.86440140  0.56882408  0.75483882    -0.19200
C1795       C  0.87813401  0.57248618  0.75977430     0.20000
C1796       C  0.88397099  0.56565808  0.77217771     0.02100
C1797       C  0.89812113  0.56944548  0.77636008    -0.13900
C1798       C  0.90576733  0.58014192  0.76902607    -0.11600
C1799       C  0.89959634  0.58733349  0.75733076     0.01700
C1800       C  0.88591169  0.58326094  0.75258534    -0.23800
H1801       H  0.87473262  0.53439677  0.81007144     0.09700
H1802       H  0.89016732  0.55096809  0.79766574     0.13200
H1803       H  0.84187864  0.54001066  0.77795105     0.12000
H1804       H  0.84550203  0.55620559  0.75810567     0.13200
H1805       H  0.85995926  0.57390043  0.74531704     0.12200
H1806       H  0.90347405  0.56453407  0.78539862     0.09300
H1807       H  0.91628197  0.58325892  0.77295159     0.12500
H1808       H  0.88116097  0.58879043  0.74346182     0.14400
C1809       C  0.93107960  0.59013379  0.74713721    -0.01100
C1810       C  0.92918463  0.57834865  0.73799302    -0.09100
C1811       C  0.93935117  0.56729681  0.73753247    -0.18000
C1812       C  0.95165653  0.56761434  0.74650114     0.04400
C1813       C  0.95317640  0.57939949  0.75617920     0.18600
C1814       C  0.94307233  0.59065061  0.75618944    -0.19400
C1815       C  0.96469258  0.57981490  0.76586623    -0.20600
C1816       C  0.97474737  0.56873874  0.76620861    -0.19200
C1817       C  0.97379562  0.55719787  0.75656279     0.20000
C1818       C  0.96240452  0.55660920  0.74635284     0.02100
C1819       C  0.96243366  0.54516761  0.73628850    -0.13900
C1820       C  0.97321961  0.53470480  0.73648765    -0.11600
C1821       C  0.98409181  0.53508536  0.74688662     0.01700
C1822       C  0.98429284  0.54631289  0.75694378    -0.23800
H1823       H  0.91982935  0.57781919  0.73106953     0.09700
H1824       H  0.93714820  0.55854229  0.73024570     0.13200
H1825       H  0.94431832  0.59971451  0.76343929     0.12000
H1826       H  0.96584649  0.58869963  0.77334451     0.13200
H1827       H  0.98345376  0.56930760  0.77394576     0.12200
H1828       H  0.95444298  0.54416748  0.72794740     0.09300
H1829       H  0.97295312  0.52613710  0.72857353     0.12500
H1830       H  0.99287426  0.54677500  0.76484023     0.14400
C1831       C  0.98429961  0.34480110  0.70091893    -0.01100
C1832       C  0.97973217  0.33974927  0.71437625    -0.09100
C1833       C  0.97074799  0.34802158  0.72305289    -0.18000
C1834       C  0.96595183  0.36173943  0.71853594     0.04400
C1835       C  0.97078883  0.36694700  0.70497034     0.18600
C1836       C  0.97986120  0.35848240  0.69632806    -0.19400
C1837       C  0.96639386  0.38049037  0.70002745    -0.20600
C1838       C  0.95692894  0.38882267  0.70807740    -0.19200
C1839       C  0.95162093  0.38380476  0.72125666     0.20000
C1840       C  0.95624367  0.37029086  0.72680598     0.02100
C1841       C  0.95054453  0.36570643  0.74016422    -0.13900
C1842       C  0.94001970  0.37372183  0.74717953    -0.11600
C1843       C  0.93509593  0.38667716  0.74135356     0.01700
C1844       C  0.94123106  0.39192829  0.72863907    -0.23800
H1845       H  0.98305940  0.32926469  0.71825413     0.09700
H1846       H  0.96769634  0.34328311  0.73318718     0.13200
H1847       H  0.98343452  0.36256177  0.68598760     0.12000
H1848       H  0.97012112  0.38457108  0.68974719     0.13200
H1849       H  0.95350323  0.39913569  0.70382084     0.12200
H1850       H  0.95362587  0.35577162  0.74528534     0.09300
H1851       H  0.93538583  0.36957341  0.75705328     0.12500
H1852       H  0.93725168  0.40187694  0.72400463     0.14400
C1853       C  0.90006232  0.42263777  0.75993942    -0.01100
C1854       C  0.90665959  0.43065155  0.77083078    -0.09100
C1855       C  0.89933731  0.44197915  0.77745436    -0.18000
C1856       C  0.88511540  0.44552708  0.77333947     0.04400
C1857       C  0.87887339  0.43778482  0.76169032     0.18600
C1858       C  0.88633020  0.42642229  0.75521710    -0.19400
C1859       C  0.86505027  0.44111618  0.75682585    -0.20600
C1860       C  0.85705683  0.45176764  0.76353836    -0.19200
C1861       C  0.86261346  0.45914820  0.77542098     0.20000
C1862       C  0.87672377  0.45619974  0.78051949     0.02100
C1863       C  0.88159022  0.46374847  0.79283112    -0.13900
C1864       C  0.87272562  0.47366923  0.79982877    -0.11600
C1865       C  0.85885535  0.47649387  0.79469385     0.01700
C1866       C  0.85395735  0.46928646  0.78240135    -0.23800
H1867       H  0.91725073  0.42773710  0.77469824     0.09700
H1868       H  0.90498213  0.44755670  0.78591155     0.13200
H1869       H  0.88129033  0.42020586  0.74670827     0.12000
H1870       H  0.86031750  0.43532157  0.74787047     0.13200
H1871       H  0.84631692  0.45402413  0.75960425     0.12200
H1872       H  0.89207786  0.46205923  0.79745887     0.09300
H1873       H  0.87677616  0.47918020  0.80927341     0.12500
H1874       H  0.84320771  0.47134992  0.77837169     0.14400
C1875       C  0.93101302  0.41889953  0.74884009    -0.01100
C1876       C  0.92900273  0.43043431  0.73937873    -0.09100
C1877       C  0.93925104  0.44142737  0.73838934    -0.18000
C1878       C  0.95170687  0.44131121  0.74716227     0.04400
C1879       C  0.95330190  0.42980055  0.75715919     0.18600
C1880       C  0.94317504  0.41859396  0.75764721    -0.19400
C1881       C  0.96487369  0.42964345  0.76677213    -0.20600
C1882       C  0.97490386  0.44073728  0.76676810    -0.19200
C1883       C  0.97392188  0.45197994  0.75678334     0.20000
C1884       C  0.96251280  0.45227605  0.74658563     0.02100
C1885       C  0.96260087  0.46338521  0.73613653    -0.13900
C1886       C  0.97344232  0.47385030  0.73601203    -0.11600
C1887       C  0.98427764  0.47379412  0.74647354     0.01700
C1888       C  0.98441941  0.46285795  0.75684732    -0.23800
H1889       H  0.91947570  0.43085046  0.73268726     0.09700
H1890       H  0.93698801  0.45002280  0.73092395     0.13200
H1891       H  0.94447589  0.40977355  0.76518752     0.12000
H1892       H  0.96606269  0.42097539  0.77449986     0.13200
H1893       H  0.98363024  0.44040219  0.77449606     0.12200
H1894       H  0.95460277  0.46409402  0.72776711     0.09300
H1895       H  0.97320790  0.48218799  0.72785182     0.12500
H1896       H  0.99295337  0.46263341  0.76480613     0.14400
C1897       C  0.26909299  0.59914784  0.09789807    -0.01100
C1898       C  0.27928793  0.59247028  0.08907902    -0.09100
C1899       C  0.28648129  0.60033411  0.07841804    -0.18000
C1900       C  0.28363916  0.61518550  0.07631493     0.04400
C1901       C  0.27282361  0.62166438  0.08497795     0.18600
C1902       C  0.26578235  0.61366260  0.09564687    -0.19400
C1903       C  0.26925791  0.63618127  0.08316563    -0.20600
C1904       C  0.27635360  0.64454876  0.07302424    -0.19200
C1905       C  0.28732557  0.63865477  0.06458379     0.20000
C1906       C  0.29118662  0.62390407  0.06609762     0.02100
C1907       C  0.30257583  0.61864430  0.05748196    -0.13900
C1908       C  0.30972294  0.62763358  0.04774628    -0.11600
C1909       C  0.30572474  0.64210244  0.04617763     0.01700
C1910       C  0.29450097  0.64750889  0.05466302    -0.23800
H1911       H  0.28212326  0.58129260  0.09078940     0.09700
H1912       H  0.29432039  0.59454563  0.07214014     0.13200
H1913       H  0.25781517  0.61881938  0.10244443     0.12000
H1914       H  0.26096032  0.64112830  0.08969957     0.13200
H1915       H  0.27335372  0.65577246  0.07190122     0.12200
H1916       H  0.30626631  0.60766275  0.05806435     0.09300
H1917       H  0.31830681  0.62314892  0.04126667     0.12500
H1918       H  0.29132326  0.65869256  0.05358046     0.14400
C1919       C  0.24270318  0.56417745  0.12922142    -0.01100
C1920       C  0.23095138  0.55938371  0.12111509    -0.09100
C1921       C  0.22119144  0.54946310  0.12685049    -0.18000
C1922       C  0.22280584  0.54414602  0.14104369     0.04400
C1923       C  0.23487916  0.54895341  0.14912541     0.18600
C1924       C  0.24466240  0.55877141  0.14315354    -0.19400
C1925       C  0.23699566  0.54418265  0.16324847    -0.20600
C1926       C  0.22734920  0.53470742  0.16959359    -0.19200
C1927       C  0.21537084  0.52973899  0.16195761     0.20000
C1928       C  0.21286054  0.53437466  0.14758453     0.02100
C1929       C  0.20051629  0.52900776  0.14045086    -0.13900
C1930       C  0.19123812  0.51928500  0.14724531    -0.11600
C1931       C  0.19391726  0.51461325  0.16133590     0.01700
C1932       C  0.20594974  0.52003067  0.16864171    -0.23800
H1933       H  0.22886619  0.56378090  0.11054081     0.09700
H1934       H  0.21232820  0.54643222  0.12002568     0.13200
H1935       H  0.25369949  0.56251318  0.14952208     0.12000
H1936       H  0.24615533  0.54785710  0.16946398     0.13200
H1937       H  0.22929232  0.53121552  0.18056022     0.12200
H1938       H  0.19778614  0.53202019  0.12958940     0.09300
H1939       H  0.18201095  0.51528901  0.14135448     0.12500
H1940       H  0.20813107  0.51656309  0.17957505     0.14400
C1941       C  0.25515169  0.56884749  0.09845013    -0.01100
C1942       C  0.24590796  0.57196053  0.08700798    -0.09100
C1943       C  0.24455084  0.56240949  0.07543411    -0.18000
C1944       C  0.25281042  0.54961013  0.07480805     0.04400
C1945       C  0.26265675  0.54691067  0.08622247     0.18600
C1946       C  0.26345118  0.55631398  0.09805041    -0.19400
C1947       C  0.27181410  0.53497275  0.08565458    -0.20600
C1948       C  0.27158489  0.52573777  0.07387291    -0.19200
C1949       C  0.26178059  0.52786112  0.06263929     0.20000
C1950       C  0.25192879  0.53956711  0.06314563     0.02100
C1951       C  0.24152448  0.54055570  0.05206267    -0.13900
C1952       C  0.24119729  0.53055145  0.04079305    -0.11600
C1953       C  0.25141957  0.51951805  0.03999072     0.01700
C1954       C  0.26168189  0.51823727  0.05094916    -0.23800
H1955       H  0.23958401  0.58174815  0.08717532     0.09700
H1956       H  0.23723714  0.56548702  0.06697399     0.13200
H1957       H  0.27080181  0.55413176  0.10684317     0.12000
H1958       H  0.27940993  0.53291610  0.09426244     0.13200
H1959       H  0.27901403  0.51675104  0.07363541     0.12200
H1960       H  0.23333550  0.54876827  0.05198011     0.09300
H1961       H  0.23305936  0.53159433  0.03251162     0.12500
H1962       H  0.26938968  0.50948241  0.05054790     0.14400
C1963       C  0.26275317  0.37451356  0.08699014    -0.01100
C1964       C  0.25889301  0.36058589  0.08276616    -0.09100
C1965       C  0.26586267  0.35380774  0.07137071    -0.18000
C1966       C  0.27716530  0.36072172  0.06388468     0.04400
C1967       C  0.28087667  0.37499436  0.06805762     0.18600
C1968       C  0.27359195  0.38177705  0.07945154    -0.19400
C1969       C  0.29215443  0.38221441  0.06115454    -0.20600
C1970       C  0.30008171  0.37544388  0.05041223    -0.19200
C1971       C  0.29683168  0.36133757  0.04619692     0.20000
C1972       C  0.28516181  0.35385808  0.05270584     0.02100
C1973       C  0.28212249  0.33976237  0.04784524    -0.13900
C1974       C  0.29045665  0.33328066  0.03721976    -0.11600
C1975       C  0.30213920  0.34054017  0.03103659     0.01700
C1976       C  0.30522577  0.35462218  0.03554205    -0.23800
H1977       H  0.25056529  0.35479090  0.08851957     0.09700
H1978       H  0.26235772  0.34299765  0.06895925     0.13200
H1979       H  0.27689550  0.39241952  0.08292792     0.12000
H1980       H  0.29502538  0.39309576  0.06425858     0.13200
H1981       H  0.30888771  0.38125474  0.04542820     0.12200
H1982       H  0.27334326  0.33340145  0.05200694     0.09300
H1983       H  0.28774854  0.32243456  0.03389387     0.12500
H1984       H  0.31414313  0.36040938  0.03071445     0.14400
C1985       C  0.24021059  0.40722757  0.12324129    -0.01100
C1986       C  0.24366263  0.41087900  0.13743170    -0.09100
C1987       C  0.23518748  0.42053386  0.14517365    -0.18000
C1988       C  0.22273744  0.42669031  0.13897645     0.04400
C1989       C  0.21957563  0.42330413  0.12436654     0.18600
C1990       C  0.22833866  0.41370164  0.11664362    -0.19400
C1991       C  0.20745257  0.42919081  0.11767691    -0.20600
C1992       C  0.19831714  0.43832891  0.12519929    -0.19200
C1993       C  0.20102230  0.44173157  0.13962798     0.20000
C1994       C  0.21323368  0.43593030  0.14676981     0.02100
C1995       C  0.21530044  0.43954301  0.16142796    -0.13900
C1996       C  0.20586058  0.44881617  0.16853735    -0.11600
C1997       C  0.19401186  0.45474096  0.16136151     0.13700
C1998       C  0.19158734  0.45099324  0.14693418    -0.23800
H1999       H  0.25280767  0.40592665  0.14269757     0.09700
H2000       H  0.23853114  0.42272062  0.15605493     0.13200
H2001       H  0.22543484  0.41065197  0.10576119     0.12000
H2002       H  0.20497785  0.42665584  0.10655860     0.13200
H2003       H  0.18901804  0.44271634  0.11970239     0.12200
H2004       H  0.22412262  0.43543661  0.16771290     0.09300
H2005       H  0.20794912  0.45144848  0.17970442     0.12500
H2006       H  0.18244595  0.45548648  0.14125269     0.14400
C2007       C  0.25320346  0.45924943  0.03703857    -0.01100
C2008       C  0.26311525  0.46022411  0.04834207    -0.09100
C2009       C  0.26315703  0.45002614  0.05945681    -0.18000
C2010       C  0.25344266  0.43827149  0.05940040     0.04400
C2011       C  0.24389732  0.43699313  0.04749841     0.18600
C2012       C  0.24362807  0.44760600  0.03668818    -0.19400
C2013       C  0.23471943  0.42508926  0.04640543    -0.20600
C2014       C  0.23486506  0.41433193  0.05682806    -0.19200
C2015       C  0.24380179  0.41546082  0.06889405     0.20000
C2016       C  0.25297189  0.42762795  0.07056425     0.02100
C2017       C  0.26108531  0.42867252  0.08342595    -0.13900
C2018       C  0.26037618  0.41790130  0.09394499    -0.11600
C2019       C  0.25184719  0.40567631  0.09187035     0.01700
C2020       C  0.24356515  0.40451034  0.07935889    -0.23800
H2021       H  0.27062570  0.46913958  0.04878104     0.09700
H2022       H  0.27104172  0.45150191  0.06783511     0.13200
H2023       H  0.23607808  0.44670313  0.02783218     0.12000
H2024       H  0.22750293  0.42398877  0.03730836     0.13200
H2025       H  0.22778136  0.40514834  0.05553826     0.12200
H2026       H  0.26790232  0.43777366  0.08573788     0.09300
H2027       H  0.26675246  0.41893003  0.10364881     0.12500
H2028       H  0.23682216  0.39509313  0.07790426     0.14400
C2029       C  0.29783896  0.64556038  0.98792272    -0.01100
C2030       C  0.30192621  0.63233206  0.98194445    -0.09100
C2031       C  0.29262891  0.62479520  0.97284919    -0.18000
C2032       C  0.27889969  0.63035076  0.96934732     0.04400
C2033       C  0.27475832  0.64368045  0.97562824     0.18600
C2034       C  0.28414174  0.65104129  0.98485406    -0.19400
C2035       C  0.26138852  0.64979021  0.97243455    -0.20600
C2036       C  0.25222767  0.64325331  0.96262332    -0.19200
C2037       C  0.25615014  0.63036492  0.95591639     0.20000
C2038       C  0.26933661  0.62346861  0.95947540     0.02100
C2039       C  0.27255164  0.61025946  0.95259925    -0.13900
C2040       C  0.26355447  0.60473082  0.94191577    -0.11600
C2041       C  0.25104460  0.61206402  0.93791056     0.01700
C2042       C  0.24720154  0.62463838  0.94521782    -0.23800
H2043       H  0.31238853  0.62776867  0.98426793     0.09700
H2044       H  0.29660252  0.61477761  0.96856919     0.13200
H2045       H  0.28079806  0.66121647  0.98949741     0.12000
H2046       H  0.25814552  0.65989783  0.97728171     0.13200
H2047       H  0.24212386  0.64846827  0.96004830     0.12200
H2048       H  0.28213577  0.60417102  0.95490611     0.09300
H2049       H  0.26685639  0.59511955  0.93622065     0.12500
H2050       H  0.23747358  0.63029449  0.94212872     0.14400
C2051       C  0.23052249  0.58319748  0.89761152    -0.01100
C2052       C  0.23426781  0.58340608  0.88302449    -0.09100
C2053       C  0.22893449  0.57308434  0.87356599    -0.18000
C2054       C  0.21949469  0.56218486  0.87841734     0.04400
C2055       C  0.21607912  0.56175114  0.89335085     0.18600
C2056       C  0.22157720  0.57222642  0.90276990    -0.19400
C2057       C  0.20691329  0.55107889  0.89873326    -0.20600
C2058       C  0.20076990  0.54099636  0.88954793    -0.19200
C2059       C  0.20361843  0.54136721  0.87475698     0.20000
C2060       C  0.21313789  0.55187228  0.86897084     0.02100
C2061       C  0.21571185  0.55169811  0.85395229    -0.13900
C2062       C  0.20913815  0.54151257  0.84511002    -0.11600
C2063       C  0.19966860  0.53132078  0.85086497     0.01700
C2064       C  0.19692763  0.53131068  0.86568681    -0.23800
H2065       H  0.24126944  0.59175388  0.87884957     0.09700
H2066       H  0.23227339  0.57408575  0.86250770     0.13200
H2067       H  0.21835781  0.57217331  0.91397918     0.12000
H2068       H  0.20434799  0.55062412  0.91010967     0.13200
H2069       H  0.19361089  0.53293988  0.89402730     0.12200
H2070       H  0.22271175  0.55928099  0.84866387     0.09300
H2071       H  0.21134198  0.54173078  0.83365593     0.12500
H2072       H  0.18969210  0.52333231  0.87020388     0.14400
C2073       C  0.24102122  0.58163463  0.92948963    -0.01100
C2074       C  0.25066716  0.57062092  0.92607231    -0.09100
C2075       C  0.25238005  0.55881737  0.93529772    -0.18000
C2076       C  0.24421326  0.55761151  0.94812606     0.04400
C2077       C  0.23382423  0.56847754  0.95100351     0.18600
C2078       C  0.23256356  0.58046649  0.94187770    -0.19400
C2079       C  0.22476630  0.56733206  0.96297879    -0.20600
C2080       C  0.22579821  0.55560886  0.97222986    -0.19200
C2081       C  0.23628816  0.54502758  0.97005720     0.20000
C2082       C  0.24587447  0.54601899  0.95815688     0.02100
C2083       C  0.25690408  0.53557189  0.95706111    -0.13900
C2084       C  0.25818403  0.52451521  0.96723749    -0.11600
C2085       C  0.24833067  0.52328679  0.97857401     0.01700
C2086       C  0.23737753  0.53355642  0.97987440    -0.23800
H2087       H  0.25713424  0.57137611  0.91640444     0.09700
H2088       H  0.26004342  0.55073925  0.93205558     0.13200
H2089       H  0.22492574  0.58894174  0.94431253     0.12000
H2090       H  0.21673461  0.57550601  0.96513962     0.13200
H2091       H  0.21852024  0.55496627  0.98132508     0.12200
H2092       H  0.26487774  0.53585877  0.94863938     0.09300
H2093       H  0.26678283  0.51673212  0.96609564     0.12500
H2094       H  0.22988426  0.53281299  0.98879669     0.14400
C2095       C  0.26238690  0.38193503  0.91924624    -0.01100
C2096       C  0.27254530  0.38945351  0.92740233    -0.09100
C2097       C  0.28006323  0.38256224  0.93841028    -0.18000
C2098       C  0.27776657  0.36778946  0.94139578     0.04400
C2099       C  0.26691435  0.36045384  0.93349533     0.18600
C2100       C  0.25940041  0.36755288  0.92254215    -0.19400
C2101       C  0.26390561  0.34595610  0.93625675    -0.20600
C2102       C  0.27172333  0.33841228  0.94650008    -0.19200
C2103       C  0.28287042  0.34514062  0.95404312     0.20000
C2104       C  0.28606102  0.35993383  0.95163690     0.02100
C2105       C  0.29769674  0.36607844  0.95926268    -0.13900
C2106       C  0.30583653  0.35784819  0.96878600    -0.11600
C2107       C  0.30259061  0.34330921  0.97114902     0.01700
C2108       C  0.29101767  0.33705583  0.96382128    -0.23800
H2109       H  0.27523158  0.40049717  0.92485054     0.09700
H2110       H  0.28780502  0.38901093  0.94413517     0.13200
H2111       H  0.25145176  0.36175652  0.91625414     0.12000
H2112       H  0.25556267  0.34036206  0.93032573     0.13200
H2113       H  0.26922965  0.32715190  0.94831841     0.12200
H2114       H  0.30093363  0.37713962  0.95797734     0.09300
H2115       H  0.31468301  0.36296166  0.97439788     0.12500
H2116       H  0.28845529  0.32579311  0.96556022     0.14400
C2117       C  0.23951357  0.41620607  0.88487970    -0.01100
C2118       C  0.22797135  0.42286713  0.89184987    -0.09100
C2119       C  0.22038076  0.43395635  0.88512850    -0.18000
C2120       C  0.22409882  0.43863698  0.87110369     0.04400
C2121       C  0.23595082  0.43186235  0.86419718     0.18600
C2122       C  0.24348116  0.42080350  0.87110857    -0.19400
C2123       C  0.24011537  0.43598581  0.85033156    -0.20600
C2124       C  0.23269092  0.44669257  0.84305721    -0.19200
C2125       C  0.22090661  0.45349446  0.84946571     0.20000
C2126       C  0.21641510  0.44961681  0.86358634     0.02100
C2127       C  0.20436312  0.45682164  0.86945906    -0.13900
C2128       C  0.19703009  0.46729304  0.86156201    -0.11600
C2129       C  0.20152973  0.47101684  0.84766177     0.01700
C2130       C  0.21353122  0.46412408  0.84173722    -0.23800
H2131       H  0.22444111  0.41916511  0.90231816     0.09700
H2132       H  0.21152628  0.43846146  0.89109903     0.13200
H2133       H  0.25240361  0.41560260  0.86567114     0.12000
H2134       H  0.24914021  0.43083561  0.84503839     0.13200
H2135       H  0.23614314  0.44961680  0.83229665     0.12200
H2136       H  0.20029619  0.45459421  0.88009377     0.09300
H2137       H  0.18785848  0.47258517  0.86642432     0.12500
H2138       H  0.21708164  0.46692176  0.83096781     0.14400
C2139       C  0.24947010  0.41234517  0.91651747    -0.01100
C2140       C  0.23990646  0.41023841  0.92792346    -0.09100
C2141       C  0.23940164  0.41996189  0.93940393    -0.18000
C2142       C  0.24885015  0.43192291  0.93999820     0.04400
C2143       C  0.25879173  0.43374691  0.92848888     0.18600
C2144       C  0.25872695  0.42421808  0.91671645    -0.19400
C2145       C  0.26897688  0.44484170  0.92898118    -0.20600
C2146       C  0.26964925  0.45408755  0.94075568    -0.19200
C2147       C  0.25982035  0.45281011  0.95211150     0.20000
C2148       C  0.24904227  0.44192839  0.95172811     0.02100
C2149       C  0.23884332  0.44165564  0.96302765    -0.13900
C2150       C  0.23944319  0.45163080  0.97428135    -0.11600
C2151       C  0.25035674  0.46201287  0.97487463     0.01700
C2152       C  0.26058334  0.46248298  0.96377796    -0.23800
H2153       H  0.23283178  0.40096876  0.92791398     0.09700
H2154       H  0.23182766  0.41757818  0.94785794     0.13200
H2155       H  0.26631191  0.42560918  0.90795890     0.12000
H2156       H  0.27666009  0.44621724  0.92031081     0.13200
H2157       H  0.27782123  0.46241457  0.94089905     0.12200
H2158       H  0.23008830  0.43405221  0.96331972     0.09300
H2159       H  0.23136707  0.45112720  0.98267601     0.12500
H2160       H  0.26890557  0.47066782  0.96401408     0.14400
C2161       C  0.62302983  0.25906508  0.06370923    -0.01100
C2162       C  0.61594594  0.27143230  0.05886729    -0.09100
C2163       C  0.62208676  0.28004835  0.04812902    -0.18000
C2164       C  0.63553009  0.27642784  0.04193496     0.04400
C2165       C  0.64205943  0.26326704  0.04626263     0.18600
C2166       C  0.63586148  0.25486109  0.05713394    -0.19400
C2167       C  0.65497291  0.25874555  0.04003804    -0.20600
C2168       C  0.66181241  0.26720374  0.02981552    -0.19200
C2169       C  0.65607903  0.28054235  0.02583567     0.20000
C2170       C  0.64288010  0.28542055  0.03182132     0.02100
C2171       C  0.63790354  0.29923629  0.02772237    -0.13900
C2172       C  0.64568953  0.30774871  0.01801491    -0.11600
C2173       C  0.65859268  0.30274627  0.01203381     0.01700
C2174       C  0.66365517  0.28910414  0.01601297    -0.23800
H2175       H  0.60599471  0.27482337  0.06389026     0.09700
H2176       H  0.61620217  0.28956563  0.04506707     0.13200
H2177       H  0.64125758  0.24518417  0.06082999     0.12000
H2178       H  0.65989252  0.24864629  0.04319657     0.13200
H2179       H  0.67184813  0.26342983  0.02523349     0.12200
H2180       H  0.62814876  0.30382920  0.03198195     0.09300
H2181       H  0.64153095  0.31825178  0.01512430     0.12500
H2182       H  0.67364444  0.28509936  0.01151563     0.14400
C2183       C  0.59324314  0.23396535  0.10074295    -0.01100
C2184       C  0.58523385  0.22318368  0.09393753    -0.09100
C2185       C  0.57494855  0.21531756  0.10158717    -0.18000
C2186       C  0.57244523  0.21799267  0.11638461     0.04400
C2187       C  0.58039934  0.22923643  0.12307640     0.18600
C2188       C  0.59071524  0.23698282  0.11526859    -0.19400
C2189       C  0.57812698  0.23262618  0.13756642    -0.20600
C2190       C  0.56805350  0.22509708  0.14562456    -0.19200
C2191       C  0.56018852  0.21383914  0.13944929     0.20000
C2192       C  0.56237928  0.20996286  0.12479950     0.02100
C2193       C  0.55448456  0.19815017  0.11929966    -0.13900
C2194       C  0.54459087  0.19077473  0.12789814    -0.11600
C2195       C  0.54216334  0.19496940  0.14217703     0.01700
C2196       C  0.55010232  0.20644564  0.14789294    -0.23800
H2197       H  0.58723120  0.22049361  0.08277391     0.09700
H2198       H  0.56921824  0.20717321  0.09564509     0.13200
H2199       H  0.59690903  0.24536570  0.12053892     0.12000
H2200       H  0.58414905  0.24120656  0.14269567     0.13200
H2201       H  0.56646480  0.22804846  0.15680298     0.12200
H2202       H  0.55573010  0.19431790  0.10842542     0.09300
H2203       H  0.53862415  0.18190174  0.12324180     0.12500
H2204       H  0.54843612  0.20966611  0.15899125     0.14400
C2205       C  0.59270285  0.24668721  0.06994428    -0.01100
C2206       C  0.59373746  0.23988701  0.05656810    -0.09100
C2207       C  0.58186615  0.23917068  0.04738349    -0.18000
C2208       C  0.56856061  0.24546968  0.05128189     0.04400
C2209       C  0.56773761  0.25271647  0.06475325     0.18600
C2210       C  0.57969695  0.25307734  0.07399801    -0.19400
C2211       C  0.55503377  0.25967469  0.06885189    -0.20600
C2212       C  0.54320221  0.25992784  0.05969390    -0.19200
C2213       C  0.54362594  0.25285450  0.04639654     0.20000
C2214       C  0.55615171  0.24511969  0.04219247     0.02100
C2215       C  0.55566775  0.23735553  0.02909200    -0.13900
C2216       C  0.54347237  0.23772719  0.02032337    -0.11600
C2217       C  0.53153550  0.24603552  0.02415038     0.01700
C2218       C  0.53160422  0.25350973  0.03722545    -0.23800
H2219       H  0.60375401  0.23489037  0.05334808     0.09700
H2220       H  0.58350470  0.23380633  0.03723142     0.13200
H2221       H  0.57899281  0.25844269  0.08433940     0.12000
H2222       H  0.55433462  0.26520223  0.07910455     0.13200
H2223       H  0.53363007  0.26567046  0.06305606     0.12200
H2224       H  0.56448496  0.23080970  0.02538295     0.09300
H2225       H  0.54351297  0.23179543  0.01027540     0.12500
H2226       H  0.52222410  0.25972801  0.04030323     0.14400
C2227       C  0.38604499  0.26081064  0.08357160    -0.01100
C2228       C  0.39312802  0.27182268  0.07615004    -0.09100
C2229       C  0.38603168  0.27963958  0.06550491    -0.18000
C2230       C  0.37150682  0.27669181  0.06203739     0.04400
C2231       C  0.36440509  0.26548577  0.06968573     0.18600
C2232       C  0.37168035  0.25775912  0.08037469    -0.19400
C2233       C  0.35008716  0.26203234  0.06663439    -0.20600
C2234       C  0.34262014  0.26943601  0.05603081    -0.19200
C2235       C  0.34926289  0.28055332  0.04834201     0.20000
C2236       C  0.36376687  0.28443931  0.05130005     0.02100
C2237       C  0.36984798  0.29595639  0.04342202    -0.13900
C2238       C  0.36187585  0.30324766  0.03304792    -0.11600
C2239       C  0.34766432  0.29926162  0.03008184     0.01700
C2240       C  0.34143012  0.28787510  0.03773683    -0.23800
H2241       H  0.40411757  0.27463127  0.07877757     0.09700
H2242       H  0.39221947  0.28792749  0.06025593     0.13200
H2243       H  0.36618268  0.24923343  0.08617042     0.12000
H2244       H  0.34464069  0.25350109  0.07245267     0.13200
H2245       H  0.33155273  0.26647640  0.05386157     0.12200
H2246       H  0.38070024  0.29967555  0.04504412     0.09300
H2247       H  0.36693351  0.31201585  0.02724445     0.12500
H2248       H  0.33038044  0.28481450  0.03558015     0.14400
C2249       C  0.48155906  0.19755306  0.14321606    -0.01100
C2250       C  0.47591695  0.19240258  0.13021709    -0.09100
C2251       C  0.46497687  0.19992067  0.12312079    -0.18000
C2252       C  0.45924906  0.21277957  0.12897600     0.04400
C2253       C  0.46523961  0.21799490  0.14205160     0.18600
C2254       C  0.47632299  0.21050097  0.14887246    -0.19400
C2255       C  0.45990097  0.23047419  0.14854254    -0.20600
C2256       C  0.44828860  0.23766738  0.14262806    -0.19200
C2257       C  0.44191622  0.23267420  0.12996797     0.20000
C2258       C  0.44751491  0.22041774  0.12267048     0.02100
C2259       C  0.44088598  0.21623394  0.10959682    -0.13900
C2260       C  0.42879835  0.22353215  0.10444168    -0.11600
C2261       C  0.42302981  0.23506564  0.11219141     0.01700
C2262       C  0.42972408  0.23973105  0.12475717    -0.23800
H2263       H  0.47985317  0.18245379  0.12558431     0.09700
H2264       H  0.46101403  0.19523568  0.11327693     0.13200
H2265       H  0.48060665  0.21463242  0.15891599     0.12000
H2266       H  0.46450890  0.23450042  0.15847900     0.13200
H2267       H  0.44413845  0.24709882  0.14810490     0.12200
H2268       H  0.44467979  0.20731151  0.10322955     0.09300
H2269       H  0.42367014  0.21987827  0.09462657     0.12500
H2270       H  0.42527144  0.24881827  0.13059176     0.14400
C2271       C  0.41698985  0.24869413  0.08295480    -0.01100
C2272       C  0.41380589  0.24162239  0.07008625    -0.09100
C2273       C  0.42370616  0.24148276  0.05879287    -0.18000
C2274       C  0.43710511  0.24861855  0.06004065     0.04400
C2275       C  0.43989592  0.25647466  0.07288570     0.18600
C2276       C  0.42997373  0.25620126  0.08429481    -0.19400
C2277       C  0.45255062  0.26453775  0.07423890    -0.20600
C2278       C  0.46252664  0.26497822  0.06307570    -0.19200
C2279       C  0.46035941  0.25690610  0.05052900     0.20000
C2280       C  0.44777393  0.24832534  0.04898142     0.02100
C2281       C  0.44659514  0.23952863  0.03660283    -0.13900
C2282       C  0.45733092  0.23947514  0.02610187    -0.11600
C2283       C  0.46935697  0.24841383  0.02739291     0.01700
C2284       C  0.47080914  0.25716845  0.03958508    -0.23800
H2285       H  0.40368823  0.23596025  0.06891633     0.09700
H2286       H  0.42049697  0.23585650  0.04916950     0.13200
H2287       H  0.43224029  0.26189564  0.09422834     0.12000
H2288       H  0.45468168  0.27065709  0.08394375     0.13200
H2289       H  0.47214218  0.27145101  0.06438340     0.12200
H2290       H  0.43767471  0.23231747  0.03489043     0.09300
H2291       H  0.45610657  0.23258144  0.01676974     0.12500
H2292       H  0.48027933  0.26390215  0.04071061     0.14400
C2293       C  0.60795782  0.26560161  0.90731127    -0.01100
C2294       C  0.60177867  0.27717825  0.91471722    -0.09100
C2295       C  0.60997730  0.28521898  0.92455082    -0.18000
C2296       C  0.62462508  0.28183042  0.92714697     0.04400
C2297       C  0.63038581  0.26947414  0.92017088     0.18600
C2298       C  0.62206839  0.26158451  0.91042852    -0.19400
C2299       C  0.64461745  0.26528443  0.92250368    -0.20600
C2300       C  0.65349198  0.27330333  0.93137838    -0.19200
C2301       C  0.64839104  0.28578088  0.93804327     0.20000
C2302       C  0.63389823  0.29028687  0.93611771     0.02100
C2303       C  0.62953101  0.30316499  0.94302311    -0.13900
C2304       C  0.63915111  0.31106341  0.95158058    -0.11600
C2305       C  0.65335858  0.30636438  0.95353846     0.01700
C2306       C  0.65784161  0.29375521  0.94662904    -0.23800
H2307       H  0.59084535  0.28044257  0.91237525     0.09700
H2308       H  0.60471347  0.29419791  0.92968041     0.13200
H2309       H  0.62679213  0.25254014  0.90474139     0.12000
H2310       H  0.64898793  0.25581841  0.91726408     0.13200
H2311       H  0.66451433  0.26981664  0.93287882     0.12200
H2312       H  0.61878095  0.30738185  0.94199040     0.09300
H2313       H  0.63537653  0.32074762  0.95686238     0.12500
H2314       H  0.66879899  0.29000294  0.94799713     0.14400
C2315       C  0.57412225  0.23794723  0.87596857    -0.01100
C2316       C  0.57007041  0.22560478  0.88361480    -0.09100
C2317       C  0.56021054  0.21583523  0.87774527    -0.18000
C2318       C  0.55407499  0.21820605  0.86398825     0.04400
C2319       C  0.55787080  0.23109602  0.85660765     0.18600
C2320       C  0.56785700  0.24069952  0.86257790    -0.19400
C2321       C  0.55189650  0.23424413  0.84316349    -0.20600
C2322       C  0.54234278  0.22476095  0.83671582    -0.19200
C2323       C  0.53865224  0.21181326  0.84347584     0.20000
C2324       C  0.54443251  0.20828119  0.85719982     0.02100
C2325       C  0.54039854  0.19492532  0.86337895    -0.13900
C2326       C  0.53089247  0.18561621  0.85628107    -0.11600
C2327       C  0.52514063  0.18927162  0.84281856     0.01700
C2328       C  0.52916588  0.20238676  0.83650394    -0.23800
H2329       H  0.57497251  0.22320267  0.89391605     0.09700
H2330       H  0.55774886  0.20646272  0.88413292     0.13200
H2331       H  0.57098241  0.25028448  0.85666800     0.12000
H2332       H  0.55469010  0.24409433  0.83755006     0.13200
H2333       H  0.53791553  0.22751513  0.82627633     0.12200
H2334       H  0.54441065  0.19136929  0.87366542     0.09300
H2335       H  0.52795590  0.17556492  0.86142405     0.12500
H2336       H  0.52478564  0.20540438  0.82611325     0.14400
C2337       C  0.57756567  0.25160002  0.90610927    -0.01100
C2338       C  0.56401072  0.25772943  0.90411411    -0.09100
C2339       C  0.55382199  0.25747954  0.91510732    -0.18000
C2340       C  0.55689025  0.25087968  0.92848512     0.04400
C2341       C  0.57052023  0.24413627  0.93021881     0.18600
C2342       C  0.58080605  0.24478357  0.91913793    -0.19400
C2343       C  0.57373639  0.23673284  0.94294797    -0.20600
C2344       C  0.56368527  0.23585244  0.95401663    -0.19200
C2345       C  0.55035787  0.24275161  0.95281129     0.20000
C2346       C  0.54688416  0.25062686  0.94013490     0.02100
C2347       C  0.53366997  0.25816796  0.93979623    -0.13900
C2348       C  0.52427150  0.25775868  0.95147931    -0.11600
C2349       C  0.52755111  0.24958953  0.96366088     0.01700
C2350       C  0.54053122  0.24201953  0.96429286    -0.23800
H2351       H  0.56138218  0.26286343  0.89397831     0.09700
H2352       H  0.54358445  0.26234204  0.91270891     0.13200
H2353       H  0.59125815  0.23980012  0.92049422     0.12000
H2354       H  0.58404942  0.23147168  0.94429882     0.13200
H2355       H  0.56644487  0.22992558  0.96368394     0.12200
H2356       H  0.53042172  0.26474539  0.93081283     0.09300
H2357       H  0.51426976  0.26372320  0.95093479     0.12500
H2358       H  0.54312404  0.23588729  0.97389062     0.14400
C2359       C  0.38512336  0.26384352  0.91340975    -0.01100
C2360       C  0.39271166  0.27391707  0.92163698    -0.09100
C2361       C  0.38607602  0.28095797  0.93316267    -0.18000
C2362       C  0.37153553  0.27815256  0.93673960     0.04400
C2363       C  0.36413973  0.26743352  0.92869619     0.18600
C2364       C  0.37091903  0.26052783  0.91712808    -0.19400
C2365       C  0.34993379  0.26380739  0.93207748    -0.20600
C2366       C  0.34277448  0.27076647  0.94318982    -0.19200
C2367       C  0.34954089  0.28174557  0.95097244     0.20000
C2368       C  0.36399156  0.28567996  0.94783838     0.02100
C2369       C  0.37008805  0.29721973  0.95569846    -0.13900
C2370       C  0.36215475  0.30451311  0.96619192    -0.11600
C2371       C  0.34798380  0.30046752  0.96933529     0.01700
C2372       C  0.34180519  0.28898482  0.96172883    -0.23800
H2373       H  0.40363494  0.27680083  0.91884790     0.09700
H2374       H  0.39255596  0.28863342  0.93895910     0.13200
H2375       H  0.36505952  0.25260429  0.91086064     0.12000
H2376       H  0.34429320  0.25556408  0.92604167     0.13200
H2377       H  0.33176188  0.26772715  0.94552869     0.12200
H2378       H  0.38087428  0.30102690  0.95382996     0.09300
H2379       H  0.36719208  0.31333093  0.97192521     0.12500
H2380       H  0.33080978  0.28580850  0.96399132     0.14400
C2381       C  0.41759310  0.23772217  0.87970274    -0.01100
C2382       C  0.42201132  0.22532826  0.88701167    -0.09100
C2383       C  0.43197881  0.21594974  0.88081880    -0.18000
C2384       C  0.43782256  0.21874551  0.86702418     0.04400
C2385       C  0.43354486  0.23162035  0.85989273     0.18600
C2386       C  0.42344822  0.24086763  0.86621810    -0.19400
C2387       C  0.43913644  0.23507289  0.84635284    -0.20600
C2388       C  0.44870213  0.22586090  0.83954027    -0.19200
C2389       C  0.45281427  0.21291840  0.84605210     0.20000
C2390       C  0.44753559  0.20916932  0.85992410     0.02100
C2391       C  0.45205486  0.19590967  0.86593004    -0.13900
C2392       C  0.46130056  0.18675150  0.85839457    -0.11600
C2393       C  0.46636106  0.19048439  0.84467879     0.01700
C2394       C  0.46211210  0.20364425  0.83864643    -0.23800
H2395       H  0.41731157  0.22256452  0.89731385     0.09700
H2396       H  0.43470079  0.20651739  0.88699388     0.13200
H2397       H  0.41994113  0.25045996  0.86054909     0.12000
H2398       H  0.43598457  0.24491414  0.84092636     0.13200
H2399       H  0.45276646  0.22879512  0.82899987     0.12200
H2400       H  0.44858250  0.19225762  0.87637656     0.09300
H2401       H  0.46449330  0.17669279  0.86336005     0.12500
H2402       H  0.46602935  0.20672179  0.82808681     0.14400
C2403       C  0.41583948  0.25133551  0.90974906    -0.01100
C2404       C  0.42756760  0.26067002  0.90855358    -0.09100
C2405       C  0.43820352  0.26098258  0.91917793    -0.18000
C2406       C  0.43752847  0.25163426  0.93120275     0.04400
C2407       C  0.42596892  0.24158907  0.93183027     0.18600
C2408       C  0.41509299  0.24177301  0.92132831    -0.19400
C2409       C  0.42535234  0.23140794  0.94291456    -0.20600
C2410       C  0.43591677  0.23102753  0.95349465    -0.19200
C2411       C  0.44707181  0.24115475  0.95355716     0.20000
C2412       C  0.44791862  0.25178888  0.94256312     0.02100
C2413       C  0.45892619  0.26227999  0.94363444    -0.13900
C2414       C  0.46875439  0.26206188  0.95504112    -0.11600
C2415       C  0.46814689  0.25123813  0.96552303     0.01700
C2416       C  0.45731355  0.24078906  0.96467324    -0.23800
H2417       H  0.42829836  0.26794242  0.89946328     0.09700
H2418       H  0.44690675  0.26849057  0.91759558     0.13200
H2419       H  0.40610184  0.23436340  0.92199379     0.12000
H2420       H  0.41668631  0.22360741  0.94334773     0.13200
H2421       H  0.43519352  0.22292164  0.96186407     0.12200
H2422       H  0.46005046  0.27092924  0.93597211     0.09300
H2423       H  0.47708313  0.27021543  0.95548709     0.12500
H2424       H  0.45671115  0.23247651  0.97286011     0.14400
C2425       C  0.60872195  0.06493553  0.74013725    -0.01100
C2426       C  0.60202554  0.05878139  0.72812684    -0.09100
C2427       C  0.60885348  0.04786955  0.72027489    -0.18000
C2428       C  0.62263940  0.04278024  0.72429759     0.04400
C2429       C  0.62901760  0.04872265  0.73689832     0.18600
C2430       C  0.62210349  0.05972951  0.74455030    -0.19400
C2431       C  0.64241737  0.04387445  0.74167571    -0.20600
C2432       C  0.64979456  0.03334561  0.73410699    -0.19200
C2433       C  0.64405778  0.02755740  0.72144926     0.20000
C2434       C  0.63043173  0.03217154  0.71627263     0.02100
C2435       C  0.62541398  0.02614087  0.70318777    -0.13900
C2436       C  0.63361222  0.01596797  0.69563681    -0.11600
C2437       C  0.64697240  0.01140310  0.70092398     0.01700
C2438       C  0.65204083  0.01725796  0.71387667    -0.23800
H2439       H  0.59174776  0.06282340  0.72443527     0.09700
H2440       H  0.60317755  0.04376212  0.71103098     0.13200
H2441       H  0.62727319  0.06448761  0.75387954     0.12000
H2442       H  0.64727171  0.04831443  0.75131316     0.13200
H2443       H  0.66018024  0.02984706  0.73808455     0.12200
H2444       H  0.61528596  0.02918782  0.69844743     0.09300
H2445       H  0.62944691  0.01164000  0.68564424     0.12500
H2446       H  0.66240445  0.01392883  0.71806350     0.14400
C2447       C  0.52343033  0.14081483  0.80237463    -0.01100
C2448       C  0.52663501  0.12683406  0.80708190    -0.09100
C2449       C  0.53637684  0.11819541  0.79953155    -0.18000
C2450       C  0.54337333  0.12335083  0.78701626     0.04400
C2451       C  0.54020530  0.13762169  0.78242561     0.18600
C2452       C  0.53025163  0.14608644  0.78999190    -0.19400
C2453       C  0.54710101  0.14346870  0.77038175    -0.20600
C2454       C  0.55731454  0.13555355  0.76290273    -0.19200
C2455       C  0.56070996  0.12150385  0.76712889     0.20000
C2456       C  0.55359991  0.11503436  0.77904858     0.02100
C2457       C  0.55719789  0.10061238  0.78250834    -0.13900
C2458       C  0.56786874  0.09322961  0.77485218    -0.11600
C2459       C  0.57523706  0.09996645  0.76356910     0.01700
C2460       C  0.57143633  0.11400015  0.75964020    -0.23800
H2461       H  0.52151607  0.12248355  0.81661603     0.09700
H2462       H  0.53832466  0.10760289  0.80384850     0.13200
H2463       H  0.52795169  0.15692129  0.78629156     0.12000
H2464       H  0.54473484  0.15433719  0.76684083     0.13200
H2465       H  0.56265350  0.14049149  0.75377277     0.12200
H2466       H  0.55210233  0.09482383  0.79117765     0.09300
H2467       H  0.57078020  0.08244436  0.77818439     0.12500
H2468       H  0.57709290  0.11920920  0.75084598     0.14400
C2469       C  0.52319032  0.01560732  0.74697468    -0.01100
C2470       C  0.53364810  0.01426729  0.75771975    -0.09100
C2471       C  0.54474960  0.02433167  0.75892883    -0.18000
C2472       C  0.54553850  0.03632542  0.74955786     0.04400
C2473       C  0.53469163  0.03775993  0.73884340     0.18600
C2474       C  0.52385891  0.02728167  0.73745739    -0.19400
C2475       C  0.53457851  0.04975883  0.72972213    -0.20600
C2476       C  0.54494425  0.06046740  0.73106514    -0.19200
C2477       C  0.55591354  0.05925648  0.74129806     0.20000
C2478       C  0.55654667  0.04704261  0.75054271     0.02100
C2479       C  0.56827251  0.04603922  0.76022292    -0.13900
C2480       C  0.57885501  0.05671306  0.76065595    -0.11600
C2481       C  0.57791316  0.06879489  0.75175770     0.01700
C2482       C  0.56640205  0.07010902  0.74220039    -0.23800
H2483       H  0.53329408  0.00529917  0.76518032     0.09700
H2484       H  0.55236439  0.02257857  0.76749163     0.13200
H2485       H  0.51564759  0.02845298  0.72924734     0.12000
H2486       H  0.52629991  0.05096143  0.72159752     0.13200
H2487       H  0.54446724  0.06969775  0.72393392     0.12200
H2488       H  0.56973588  0.03701626  0.76736783     0.09300
H2489       H  0.58783813  0.05560234  0.76799203     0.12500
H2490       H  0.56590414  0.07943249  0.73518749     0.14400
C2491       C  0.37794902  0.06977899  0.73873873    -0.01100
C2492       C  0.38593915  0.06459491  0.72708822    -0.09100
C2493       C  0.37995394  0.05470219  0.71749214    -0.18000
C2494       C  0.36564295  0.04980538  0.71921969     0.04400
C2495       C  0.35782217  0.05471032  0.73143606     0.18600
C2496       C  0.36400419  0.06461094  0.74099511    -0.19400
C2497       C  0.34372348  0.05004668  0.73383533    -0.20600
C2498       C  0.33703602  0.04085767  0.72414511    -0.19200
C2499       C  0.34424961  0.03622423  0.71176754     0.20000
C2500       C  0.35868379  0.04052380  0.70912953     0.02100
C2501       C  0.36536513  0.03560057  0.69634868    -0.13900
C2502       C  0.35794888  0.02691053  0.68657118    -0.11600
C2503       C  0.34371113  0.02278919  0.68922393     0.01700
C2504       C  0.33698860  0.02742825  0.70191287    -0.23800
H2505       H  0.39663492  0.06869070  0.72497174     0.09700
H2506       H  0.38668756  0.05137223  0.70867372     0.13200
H2507       H  0.35780775  0.06863940  0.75003192     0.12000
H2508       H  0.33775703  0.05368189  0.74317794     0.13200
H2509       H  0.32605043  0.03754369  0.72622751     0.12200
H2510       H  0.37625056  0.03836007  0.69352111     0.09300
H2511       H  0.36342946  0.02337577  0.67690717     0.12500
H2512       H  0.32598079  0.02427090  0.70413333     0.14400
C2513       C  0.46300473  0.14281146  0.80402607    -0.01100
C2514       C  0.45860852  0.12935251  0.80924961    -0.09100
C2515       C  0.44842920  0.12114960  0.80179644    -0.18000
C2516       C  0.44223236  0.12622673  0.78884178     0.04400
C2517       C  0.44632528  0.14013552  0.78391181     0.18600
C2518       C  0.45668424  0.14816235  0.79139995    -0.19400
C2519       C  0.44002669  0.14601068  0.77155447    -0.20600
C2520       C  0.42953032  0.13845677  0.76407530    -0.19200
C2521       C  0.42538277  0.12468102  0.76853806     0.20000
C2522       C  0.43193961  0.11816428  0.78074203     0.02100
C2523       C  0.42788924  0.10388016  0.78425466    -0.13900
C2524       C  0.41722973  0.09671394  0.77642245    -0.11600
C2525       C  0.41029083  0.10358130  0.76498123     0.01700
C2526       C  0.41454177  0.11744936  0.76095650    -0.23800
H2527       H  0.46319439  0.12502567  0.81905655     0.09700
H2528       H  0.44552937  0.11094741  0.80651295     0.13200
H2529       H  0.45982477  0.15865422  0.78733904     0.12000
H2530       H  0.44308479  0.15662367  0.76776715     0.13200
H2531       H  0.42464883  0.14341075  0.75470555     0.12200
H2532       H  0.43272239  0.09799599  0.79300529     0.09300
H2533       H  0.41402155  0.08597289  0.77966093     0.12500
H2534       H  0.40923620  0.12268288  0.75196466     0.14400
C2535       C  0.40838314  0.07305335  0.75175466    -0.01100
C2536       C  0.42129086  0.07635651  0.74477479    -0.09100
C2537       C  0.43214352  0.06602115  0.74345834    -0.18000
C2538       C  0.43043510  0.05203994  0.74931298     0.04400
C2539       C  0.41748316  0.04899688  0.75689934     0.18600
C2540       C  0.40654513  0.05938953  0.75782259    -0.19400
C2541       C  0.41553819  0.03562016  0.76356246    -0.20600
C2542       C  0.42622146  0.02517485  0.76294513    -0.19200
C2543       C  0.43891856  0.02765963  0.75524169     0.20000
C2544       C  0.44110849  0.04100907  0.74803670     0.02100
C2545       C  0.45375100  0.04258416  0.73966719    -0.13900
C2546       C  0.46381123  0.03142163  0.73865467    -0.11600
C2547       C  0.46179447  0.01855918  0.74623311     0.01700
C2548       C  0.44938209  0.01676892  0.75456147    -0.23800
H2549       H  0.42283689  0.08692648  0.74009045     0.09700
H2550       H  0.44179639  0.06933139  0.73794937     0.13200
H2551       H  0.39658310  0.05694881  0.76338175     0.12000
H2552       H  0.40573480  0.03326920  0.76942722     0.13200
H2553       H  0.42444476  0.01498462  0.76836017     0.12200
H2554       H  0.45602385  0.05219703  0.73356837     0.09300
H2555       H  0.47335075  0.03293950  0.73212573     0.12500
H2556       H  0.44771816  0.00669868  0.76025328     0.14400
C2557       C  0.64793381  0.95070888  0.69771282    -0.01100
C2558       C  0.63384075  0.94834963  0.69293477    -0.09100
C2559       C  0.62490898  0.93848278  0.69992656    -0.18000
C2560       C  0.62986439  0.93054903  0.71194047     0.04400
C2561       C  0.64438365  0.93256622  0.71633657     0.18600
C2562       C  0.65318247  0.94262043  0.70930097    -0.19400
C2563       C  0.65003430  0.92462469  0.72781040    -0.20600
C2564       C  0.64154953  0.91472705  0.73510975    -0.19200
C2565       C  0.62715885  0.91267879  0.73123530     0.20000
C2566       C  0.62101773  0.92064050  0.71970097     0.02100
C2567       C  0.60631279  0.91829897  0.71648398    -0.13900
C2568       C  0.59825637  0.90807763  0.72404289    -0.11600
C2569       C  0.60454324  0.90000324  0.73508932     0.01700
C2570       C  0.61892696  0.90251882  0.73873937    -0.23800
H2571       H  0.62955432  0.95441753  0.68394717     0.09700
H2572       H  0.61418279  0.93733728  0.69568037     0.13200
H2573       H  0.66415009  0.94421858  0.71294326     0.12000
H2574       H  0.66111436  0.92605415  0.73114573     0.13200
H2575       H  0.64626900  0.90866032  0.74389082     0.12200
H2576       H  0.60076847  0.92405739  0.70807635     0.09300
H2577       H  0.58725235  0.90610789  0.72080843     0.12500
H2578       H  0.62381755  0.89632562  0.74734935     0.14400
C2579       C  0.56698024  0.86889420  0.75760907    -0.01100
C2580       C  0.56132855  0.85557181  0.75356636    -0.09100
C2581       C  0.54982922  0.84956689  0.76105462    -0.18000
C2582       C  0.54381525  0.85663413  0.77313270     0.04400
C2583       C  0.54946212  0.87033389  0.77701606     0.18600
C2584       C  0.56083829  0.87640768  0.76912623    -0.19400
C2585       C  0.54408797  0.87762103  0.78905934    -0.20600
C2586       C  0.53345591  0.87141802  0.79758868    -0.19200
C2587       C  0.52783080  0.85784906  0.79418605     0.20000
C2588       C  0.53275373  0.85038436  0.78175458     0.02100
C2589       C  0.52656202  0.83685252  0.77862321    -0.13900
C2590       C  0.51624251  0.83082012  0.78762973    -0.11600
C2591       C  0.51164405  0.83800143  0.80006217     0.01700
C2592       C  0.51739887  0.85160903  0.80321787    -0.23800
H2593       H  0.56604265  0.84963654  0.74470027     0.09700
H2594       H  0.54622941  0.83918898  0.75734929     0.13200
H2595       H  0.56544138  0.88661245  0.77244384     0.12000
H2596       H  0.54833952  0.88806745  0.79206810     0.13200
H2597       H  0.52969817  0.87722008  0.80698708     0.12200
H2598       H  0.52944555  0.83058434  0.76931191     0.09300
H2599       H  0.51190891  0.82035994  0.78482394     0.12500
H2600       H  0.51382800  0.85733003  0.81274351     0.14400
C2601       C  0.52038675  0.95489142  0.74337409    -0.01100
C2602       C  0.51913265  0.94359407  0.73350279    -0.09100
C2603       C  0.52908679  0.93231163  0.73345003    -0.18000
C2604       C  0.54087394  0.93220696  0.74310251     0.04400
C2605       C  0.54244255  0.94410697  0.75261361     0.18600
C2606       C  0.53205070  0.95509437  0.75290843    -0.19400
C2607       C  0.55442740  0.94502891  0.76168854    -0.20600
C2608       C  0.56495250  0.93439131  0.76150789    -0.19200
C2609       C  0.56349418  0.92229813  0.75264008     0.20000
C2610       C  0.55125898  0.92085654  0.74353953     0.02100
C2611       C  0.54982353  0.90798348  0.73551373    -0.13900
C2612       C  0.56020409  0.89715172  0.73635377    -0.11600
C2613       C  0.57243065  0.89889769  0.74492613     0.01700
C2614       C  0.57408251  0.91149365  0.75299712    -0.23800
H2615       H  0.51023283  0.94334586  0.72597808     0.09700
H2616       H  0.52742193  0.92396599  0.72556162     0.13200
H2617       H  0.53318856  0.96400914  0.76036937     0.12000
H2618       H  0.55575889  0.95413736  0.76886221     0.13200
H2619       H  0.57418460  0.93551279  0.76854176     0.12200
H2620       H  0.54063753  0.90582497  0.72877700     0.09300
H2621       H  0.55875239  0.88732668  0.73024173     0.12500
H2622       H  0.58344109  0.91263471  0.75986243     0.14400
C2623       C  0.37352968  0.90874020  0.72644282    -0.01100
C2624       C  0.38176516  0.91537820  0.71574045    -0.09100
C2625       C  0.37603572  0.92656751  0.70750787    -0.18000
C2626       C  0.36177463  0.93141235  0.70973782     0.04400
C2627       C  0.35367030  0.92489020  0.72097669     0.18600
C2628       C  0.35956168  0.91362892  0.72910642    -0.19400
C2629       C  0.33964359  0.92946635  0.72389553    -0.20600
C2630       C  0.33335043  0.94028594  0.71573246    -0.19200
C2631       C  0.34087247  0.94666348  0.70434501     0.20000
C2632       C  0.35519051  0.94233504  0.70115001     0.02100
C2633       C  0.36217533  0.94897765  0.68935837    -0.13900
C2634       C  0.35524380  0.95947688  0.68114994    -0.11600
C2635       C  0.34118111  0.96377454  0.68442114     0.01700
C2636       C  0.33408309  0.95731157  0.69606810    -0.23800
H2637       H  0.39250056  0.91156781  0.71334942     0.09700
H2638       H  0.38298287  0.93105958  0.69938103     0.13200
H2639       H  0.35319949  0.90850818  0.73745852     0.12000
H2640       H  0.33346110  0.92458387  0.73250774     0.13200
H2641       H  0.32244765  0.94356609  0.71823418     0.12200
H2642       H  0.37296111  0.94625275  0.68612739     0.09300
H2643       H  0.36100906  0.96433677  0.67225250     0.12500
H2644       H  0.32319406  0.96054105  0.69871355     0.14400
C2645       C  0.40431865  0.87507367  0.75458902    -0.01100
C2646       C  0.40962874  0.88275908  0.76639014    -0.09100
C2647       C  0.41919781  0.87631809  0.77601643    -0.18000
C2648       C  0.42370094  0.86189209  0.77409435     0.04400
C2649       C  0.41861015  0.85436854  0.76175584     0.18600
C2650       C  0.40895288  0.86095981  0.75224853    -0.19400
C2651       C  0.42298294  0.84022108  0.75907903    -0.20600
C2652       C  0.43227237  0.83328016  0.76846530    -0.19200
C2653       C  0.43724589  0.84025904  0.78084686     0.20000
C2654       C  0.43298789  0.85462094  0.78394721     0.02100
C2655       C  0.43813909  0.86097444  0.79681572    -0.13900
C2656       C  0.44744477  0.85349031  0.80596790    -0.11600
C2657       C  0.45186095  0.83947520  0.80261789     0.01700
C2658       C  0.44655127  0.83290686  0.79011142    -0.23800
H2659       H  0.40590625  0.89358492  0.76855308     0.09700
H2660       H  0.42272073  0.88284508  0.78493454     0.13200
H2661       H  0.40480291  0.85501020  0.74309315     0.12000
H2662       H  0.41917972  0.83447444  0.74966081     0.13200
H2663       H  0.43551260  0.82232596  0.76607163     0.12200
H2664       H  0.43520727  0.87170680  0.80009953     0.09300
H2665       H  0.45135116  0.85878792  0.81559191     0.12500
H2666       H  0.44981924  0.82202890  0.78740782     0.14400
C2667       C  0.40322417  0.90528963  0.74075440    -0.01100
C2668       C  0.40132180  0.91749250  0.74931125    -0.09100
C2669       C  0.41197144  0.92807854  0.75004985    -0.18000
C2670       C  0.42479475  0.92688621  0.74190680     0.04400
C2671       C  0.42640180  0.91463448  0.73284507     0.18600
C2672       C  0.41577875  0.90384296  0.73259011    -0.19400
C2673       C  0.43852535  0.91330621  0.72400782    -0.20600
C2674       C  0.44912328  0.92389745  0.72394617    -0.19200
C2675       C  0.44807133  0.93589015  0.73301912     0.20000
C2676       C  0.43600018  0.93744613  0.74231567     0.02100
C2677       C  0.43581397  0.94937293  0.75179537    -0.13900
C2678       C  0.44712522  0.95926988  0.75203691    -0.11600
C2679       C  0.45878521  0.95785778  0.74263760     0.01700
C2680       C  0.45914601  0.94624024  0.73303145    -0.23800
H2681       H  0.39155829  0.91872282  0.75554806     0.09700
H2682       H  0.40972701  0.93717670  0.75688002     0.13200
H2683       H  0.41705522  0.89444101  0.72579227     0.12000
H2684       H  0.43976099  0.90406340  0.71699230     0.13200
H2685       H  0.45831932  0.92259206  0.71689536     0.12200
H2686       H  0.42724545  0.95118545  0.75938667     0.09300
H2687       H  0.44670291  0.96818581  0.75955158     0.12500
H2688       H  0.46829512  0.94501629  0.72589104     0.14400
C2689       C  0.64666527  0.68817677  0.02016485    -0.01100
C2690       C  0.63338219  0.68347558  0.02552920    -0.09100
C2691       C  0.62659691  0.69081867  0.03675198    -0.18000
C2692       C  0.63297029  0.70313636  0.04305174     0.04400
C2693       C  0.64651277  0.70775849  0.03762351     0.18600
C2694       C  0.65312951  0.70035518  0.02627334    -0.19400
C2695       C  0.65346859  0.71969908  0.04360228    -0.20600
C2696       C  0.64732023  0.72714890  0.05498114    -0.19200
C2697       C  0.63400594  0.72291982  0.06055624     0.20000
C2698       C  0.62652005  0.71095457  0.05461100     0.02100
C2699       C  0.61297790  0.70733228  0.06058444    -0.13900
C2700       C  0.60732959  0.71507560  0.07216582    -0.11600
C2701       C  0.61495797  0.72661230  0.07809592     0.01700
C2702       C  0.62822015  0.73052642  0.07220241    -0.23800
H2703       H  0.62816433  0.67406809  0.02102492     0.09700
H2704       H  0.61643567  0.68651868  0.04030673     0.13200
H2705       H  0.66345841  0.70404141  0.02228819     0.12000
H2706       H  0.66380221  0.72324328  0.03951585     0.13200
H2707       H  0.65303791  0.73627953  0.05947192     0.12200
H2708       H  0.60655726  0.69850687  0.05666080     0.09300
H2709       H  0.59719083  0.71170363  0.07680286     0.12500
H2710       H  0.63412184  0.73948890  0.07681781     0.14400
C2711       C  0.53863035  0.79882952  0.15320786    -0.01100
C2712       C  0.54467932  0.78701499  0.16034090    -0.09100
C2713       C  0.55333124  0.77723103  0.15299098    -0.18000
C2714       C  0.55620502  0.77892222  0.13813089     0.04400
C2715       C  0.54992055  0.79085501  0.13089930     0.18600
C2716       C  0.54130014  0.80067902  0.13846757    -0.19400
C2717       C  0.55227402  0.79292347  0.11615724    -0.20600
C2718       C  0.56101124  0.78353862  0.10845616    -0.19200
C2719       C  0.56764159  0.77188829  0.11532514     0.20000
C2720       C  0.56522736  0.76932757  0.13024308     0.02100
C2721       C  0.57227065  0.75748998  0.13670192    -0.13900
C2722       C  0.58177716  0.74900186  0.12885115    -0.11600
C2723       C  0.58441676  0.75181236  0.11431049     0.01700
C2724       C  0.57710311  0.76307264  0.10748866    -0.23800
H2725       H  0.54267601  0.78525132  0.17169656     0.09700
H2726       H  0.55753550  0.76845002  0.15927708     0.13200
H2727       H  0.53648402  0.80967026  0.13279150     0.12000
H2728       H  0.54742359  0.80194306  0.11056508     0.13200
H2729       H  0.56277284  0.78553662  0.09709281     0.12200
H2730       H  0.57100788  0.75470555  0.14788145     0.09300
H2731       H  0.58742093  0.74036159  0.13428957     0.12500
H2732       H  0.57941322  0.76552944  0.09632006     0.14400
C2733       C  0.58461001  0.73860462  0.08352398    -0.01100
C2734       C  0.57290223  0.72933689  0.08538091    -0.09100
C2735       C  0.56198174  0.72862587  0.07500724    -0.18000
C2736       C  0.56235952  0.73749049  0.06258710     0.04400
C2737       C  0.57406891  0.74727672  0.06116525     0.18600
C2738       C  0.58515504  0.74750883  0.07142112    -0.19400
C2739       C  0.57462844  0.75685455  0.04955932    -0.20600
C2740       C  0.56371749  0.75708600  0.03935830    -0.19200
C2741       C  0.55220532  0.74742088  0.04023239     0.20000
C2742       C  0.55149705  0.73721571  0.05164076     0.02100
C2743       C  0.54003088  0.72715787  0.05145369    -0.13900
C2744       C  0.52955465  0.72752161  0.04059827    -0.11600
C2745       C  0.53000481  0.73806808  0.02981394     0.01700
C2746       C  0.54139163  0.74793063  0.02969543    -0.23800
H2747       H  0.57240859  0.72241641  0.09475501     0.09700
H2748       H  0.55329992  0.72120788  0.07707339     0.13200
H2749       H  0.59421949  0.75474836  0.07013696     0.12000
H2750       H  0.58347961  0.76437897  0.04847237     0.13200
H2751       H  0.56436358  0.76480607  0.03062481     0.12200
H2752       H  0.53897099  0.71881966  0.05946607     0.09300
H2753       H  0.52085246  0.71976197  0.04085407     0.12500
H2754       H  0.54191458  0.75597086  0.02123357     0.14400
C2755       C  0.39129900  0.72781651  0.09301980    -0.01100
C2756       C  0.39779612  0.71627045  0.08588986    -0.09100
C2757       C  0.39015941  0.70835102  0.07562717    -0.18000
C2758       C  0.37572387  0.71182701  0.07223354     0.04400
C2759       C  0.36943267  0.72389005  0.07926776     0.18600
C2760       C  0.37719275  0.73162561  0.08961029    -0.19400
C2761       C  0.35534284  0.72806666  0.07612843    -0.20600
C2762       C  0.34718687  0.72036465  0.06628927    -0.19200
C2763       C  0.35286569  0.70819209  0.05949803     0.20000
C2764       C  0.36721654  0.70371878  0.06230906     0.02100
C2765       C  0.37227373  0.69120086  0.05524940    -0.13900
C2766       C  0.36339534  0.68344207  0.04590389    -0.11600
C2767       C  0.34925638  0.68791628  0.04323492     0.01700
C2768       C  0.34413908  0.70037483  0.05001472    -0.23800
H2769       H  0.40863458  0.71302570  0.08861482     0.09700
H2770       H  0.39578374  0.69950348  0.07067532     0.13200
H2771       H  0.37220368  0.74060495  0.09516620     0.12000
H2772       H  0.35055715  0.73731293  0.08139497     0.13200
H2773       H  0.33626883  0.72383564  0.06413642     0.12200
H2774       H  0.38297403  0.68704768  0.05682223     0.09300
H2775       H  0.36765046  0.67389460  0.04074015     0.12500
H2776       H  0.33323294  0.70398765  0.04801612     0.14400
C2777       C  0.48064835  0.79979441  0.15293215    -0.01100
C2778       C  0.47441880  0.80418391  0.13991804    -0.09100
C2779       C  0.46460665  0.79532981  0.13273550    -0.18000
C2780       C  0.46068361  0.78173468  0.13840946     0.04400
C2781       C  0.46740102  0.77718638  0.15138937     0.18600
C2782       C  0.47723863  0.78616812  0.15844969    -0.19400
C2783       C  0.46406186  0.76380778  0.15745662    -0.20600
C2784       C  0.45365228  0.75507125  0.15128855    -0.19200
C2785       C  0.44639405  0.75948156  0.13887451     0.20000
C2786       C  0.45004477  0.77267985  0.13198366     0.02100
C2787       C  0.44250538  0.77641298  0.11927612    -0.13900
C2788       C  0.43130902  0.76778649  0.11415258    -0.11600
C2789       C  0.42739544  0.75521600  0.12145590     0.01700
C2790       C  0.43513463  0.75096776  0.13360207    -0.23800
H2791       H  0.47702891  0.81457854  0.13530896     0.09700
H2792       H  0.46015289  0.79951689  0.12287572     0.13200
H2793       H  0.48217917  0.78253055  0.16838182     0.12000
H2794       H  0.46928984  0.76022490  0.16725350     0.13200
H2795       H  0.45102476  0.74493600  0.15645790     0.12200
H2796       H  0.44474082  0.78609378  0.11327292     0.09300
H2797       H  0.42528431  0.77130084  0.10482426     0.12500
H2798       H  0.43210112  0.74115448  0.13917997     0.14400
C2799       C  0.42109015  0.74223274  0.09185334    -0.01100
C2800       C  0.41940950  0.75285190  0.08135010    -0.09100
C2801       C  0.42891273  0.75365180  0.06971863    -0.18000
C2802       C  0.44018844  0.74352512  0.06815132     0.04400
C2803       C  0.44139061  0.73243471  0.07866380     0.18600
C2804       C  0.43209242  0.73211953  0.09054126    -0.19400
C2805       C  0.45174981  0.72162837  0.07718680    -0.20600
C2806       C  0.46087099  0.72144824  0.06535181    -0.19200
C2807       C  0.46020330  0.73236536  0.05499212     0.20000
C2808       C  0.45013439  0.74380149  0.05642829     0.02100
C2809       C  0.45061422  0.75506748  0.04616849    -0.13900
C2810       C  0.46045176  0.75475670  0.03479079    -0.11600
C2811       C  0.46985139  0.74310994  0.03311550     0.01700
C2812       C  0.46967388  0.73196327  0.04324664    -0.23800
H2813       H  0.41080927  0.76065224  0.08230621     0.09700
H2814       H  0.42699302  0.76209796  0.06199438     0.13200
H2815       H  0.43318629  0.72384904  0.09871222     0.12000
H2816       H  0.45264223  0.71311172  0.08512060     0.13200
H2817       H  0.46862220  0.71278932  0.06438043     0.12200
H2818       H  0.44371296  0.76436705  0.04680139     0.09300
H2819       H  0.46056380  0.76356413  0.02713575     0.12500
H2820       H  0.47719151  0.72310040  0.04216279     0.14400
C2821       C  0.60518074  0.73207674  0.90949454    -0.01100
C2822       C  0.59782825  0.72075787  0.91617577    -0.09100
C2823       C  0.60465758  0.71225776  0.92650603    -0.18000
C2824       C  0.61915892  0.71482387  0.93034820     0.04400
C2825       C  0.62635301  0.72664860  0.92376237     0.18600
C2826       C  0.61934974  0.73506284  0.91343386    -0.19400
C2827       C  0.64059821  0.72987505  0.92729250    -0.20600
C2828       C  0.64801963  0.72144154  0.93709545    -0.19200
C2829       C  0.64139775  0.70952067  0.94348819     0.20000
C2830       C  0.62687366  0.70600390  0.94027653     0.02100
C2831       C  0.62084943  0.69368984  0.94696853    -0.13900
C2832       C  0.62896065  0.68525134  0.95641420    -0.11600
C2833       C  0.64323871  0.68885845  0.95953091     0.01700
C2834       C  0.64933713  0.70103201  0.95302954    -0.23800
H2835       H  0.58692007  0.71813456  0.91305365     0.09700
H2836       H  0.59837929  0.70365414  0.93110056     0.13200
H2837       H  0.62500577  0.74388237  0.90825913     0.12000
H2838       H  0.64607984  0.73892082  0.92234828     0.13200
H2839       H  0.65908621  0.72416353  0.93956350     0.12200
H2840       H  0.60994939  0.69024518  0.94507906     0.09300
H2841       H  0.62398540  0.67594153  0.96138140     0.12500
H2842       H  0.66039765  0.70393455  0.95533815     0.14400
C2843       C  0.57012930  0.75823185  0.87869441    -0.01100
C2844       C  0.56343083  0.76894171  0.88686839    -0.09100
C2845       C  0.55192911  0.77675213  0.88119684    -0.18000
C2846       C  0.54687508  0.77405979  0.86707848     0.04400
C2847       C  0.55346687  0.76276263  0.85911088     0.18600
C2848       C  0.56500428  0.75507751  0.86493201    -0.19400
C2849       C  0.54869288  0.75932688  0.84526913    -0.20600
C2850       C  0.53757726  0.76702380  0.83900719    -0.19200
C2851       C  0.53113273  0.77845548  0.84637156     0.20000
C2852       C  0.53567241  0.78222248  0.86048786     0.02100
C2853       C  0.52897961  0.79415363  0.86721190    -0.13900
C2854       C  0.51819808  0.80193262  0.86018882    -0.11600
C2855       C  0.51368974  0.79798004  0.84636947     0.01700
C2856       C  0.52022177  0.78622890  0.83956523    -0.23800
H2857       H  0.56739413  0.77162280  0.89749734     0.09700
H2858       H  0.54734437  0.78490378  0.88805157     0.13200
H2859       H  0.57015808  0.74667770  0.85866594     0.12000
H2860       H  0.55364159  0.75066945  0.83921102     0.13200
H2861       H  0.53412469  0.76413581  0.82823980     0.12200
H2862       H  0.53192052  0.79782880  0.87781179     0.09300
H2863       H  0.51329328  0.81098913  0.86565126     0.12500
H2864       H  0.51691404  0.78316492  0.82879426     0.14400
C2865       C  0.57470215  0.74485707  0.90875306    -0.01100
C2866       C  0.56159510  0.73774130  0.90685780    -0.09100
C2867       C  0.55181601  0.73658276  0.91821937    -0.18000
C2868       C  0.55485388  0.74272977  0.93183015     0.04400
C2869       C  0.56791697  0.75055964  0.93340737     0.18600
C2870       C  0.57778846  0.75131133  0.92199376    -0.19400
C2871       C  0.57101154  0.75765015  0.94633167    -0.20600
C2872       C  0.56132499  0.75727212  0.95772556    -0.19200
C2873       C  0.54857277  0.74933263  0.95666697     0.20000
C2874       C  0.54533516  0.74158859  0.94385777     0.02100
C2875       C  0.53283689  0.73287441  0.94375775    -0.13900
C2876       C  0.52371687  0.73229697  0.95570895    -0.11600
C2877       C  0.52657744  0.74061066  0.96792858     0.01700
C2878       C  0.53903648  0.74905082  0.96838595    -0.23800
H2879       H  0.55906754  0.73284529  0.89658354     0.09700
H2880       H  0.54190135  0.73099970  0.91597813     0.13200
H2881       H  0.58787425  0.75702868  0.92329874     0.12000
H2882       H  0.58090175  0.76370950  0.94756318     0.13200
H2883       H  0.56391577  0.76308044  0.96750942     0.12200
H2884       H  0.52994310  0.72623890  0.93468842     0.09300
H2885       H  0.51415612  0.72563512  0.95524658     0.12500
H2886       H  0.54138336  0.75528110  0.97798257     0.14400
C2887       C  0.37408858  0.73886100  0.93391930    -0.01100
C2888       C  0.38178090  0.72667451  0.93825986    -0.09100
C2889       C  0.37618941  0.71739189  0.94870296    -0.18000
C2890       C  0.36260409  0.72002341  0.95506912     0.04400
C2891       C  0.35526901  0.73287883  0.95116111     0.18600
C2892       C  0.36101716  0.74207727  0.94064684    -0.19400
C2893       C  0.34201799  0.73626860  0.95742844    -0.20600
C2894       C  0.33569075  0.72699700  0.96731357    -0.19200
C2895       C  0.34236000  0.71400897  0.97101722     0.20000
C2896       C  0.35590489  0.71029521  0.96495166     0.02100
C2897       C  0.36196917  0.69687353  0.96882230    -0.13900
C2898       C  0.35496600  0.68765650  0.97843242    -0.11600
C2899       C  0.34173207  0.69147306  0.98455921     0.01700
C2900       C  0.33548863  0.70467644  0.98073201    -0.23800
H2901       H  0.39179877  0.72386914  0.93302761     0.09700
H2902       H  0.38261249  0.70810243  0.95132398     0.13200
H2903       H  0.35506504  0.75155029  0.93730350     0.12000
H2904       H  0.33643597  0.74610485  0.95456115     0.13200
H2905       H  0.32538784  0.72990679  0.97192957     0.12200
H2906       H  0.37207181  0.69313513  0.96455420     0.09300
H2907       H  0.36005738  0.67753783  0.98119291     0.12500
H2908       H  0.32523853  0.70776278  0.98536136     0.14400
C2909       C  0.40347410  0.76187248  0.89524472    -0.01100
C2910       C  0.40477436  0.75776464  0.88083404    -0.09100
C2911       C  0.41487437  0.76425131  0.87187835    -0.18000
C2912       C  0.42393671  0.77533507  0.87704331     0.04400
C2913       C  0.42284861  0.77921214  0.89182455     0.18600
C2914       C  0.41271983  0.77240560  0.90079554    -0.19400
C2915       C  0.43157188  0.79014639  0.89743509    -0.20600
C2916       C  0.44115220  0.79754865  0.88860647    -0.19200
C2917       C  0.44227869  0.79416874  0.87395784     0.20000
C2918       C  0.43379609  0.78289685  0.86800075     0.02100
C2919       C  0.43542104  0.77979619  0.85319118    -0.13900
C2920       C  0.44502156  0.78753753  0.84468812    -0.11600
C2921       C  0.45328476  0.79869427  0.85053641     0.01700
C2922       C  0.45183960  0.80200030  0.86519753    -0.23800
H2923       H  0.39772696  0.74959958  0.87638629     0.09700
H2924       H  0.41506272  0.76051997  0.86091231     0.13200
H2925       H  0.41156267  0.77581264  0.91189469     0.12000
H2926       H  0.43084230  0.79312804  0.90869318     0.13200
H2927       H  0.44764872  0.80605687  0.89324913     0.12200
H2928       H  0.42947548  0.77144525  0.84779457     0.09300
H2929       H  0.44592717  0.78476597  0.83339362     0.12500
H2930       H  0.45831114  0.81052957  0.86984919     0.14400
C2931       C  0.40444939  0.75058705  0.92667273    -0.01100
C2932       C  0.40462119  0.75861265  0.93938136    -0.09100
C2933       C  0.41659107  0.75837150  0.94844748    -0.18000
C2934       C  0.42871555  0.74976046  0.94517459     0.04400
C2935       C  0.42826271  0.74128415  0.93242062     0.18600
C2936       C  0.41631982  0.74203300  0.92314693    -0.19400
C2937       C  0.43960067  0.73191906  0.92916822    -0.20600
C2938       C  0.45125137  0.73052955  0.93848280    -0.19200
C2939       C  0.45212665  0.73887424  0.95101057     0.20000
C2940       C  0.44109105  0.74896702  0.95427959     0.02100
C2941       C  0.44298240  0.75789518  0.96647016    -0.13900
C2942       C  0.45506086  0.75650869  0.97528581    -0.11600
C2943       C  0.46547919  0.74602164  0.97247492     0.01700
C2944       C  0.46399554  0.73723987  0.96029537    -0.23800
H2945       H  0.39542895  0.76518344  0.94221720     0.09700
H2946       H  0.41587509  0.76474507  0.95811231     0.13200
H2947       H  0.41602386  0.73567620  0.91336346     0.12000
H2948       H  0.43930772  0.72538573  0.91950433     0.13200
H2949       H  0.45969581  0.72294753  0.93581030     0.12200
H2950       H  0.43542521  0.76619853  0.96935949     0.09300
H2951       H  0.45610577  0.76348304  0.98458037     0.12500
H2952       H  0.47221839  0.72930896  0.95792399     0.14400
C2953       C  0.61945429  0.08663633  0.26598088    -0.01100
C2954       C  0.63268415  0.08153362  0.26109315    -0.09100
C2955       C  0.64002270  0.07094854  0.26869807    -0.18000
C2956       C  0.63443648  0.06538312  0.28172590     0.04400
C2957       C  0.62059513  0.07008150  0.28623100     0.18600
C2958       C  0.61321398  0.08064090  0.27830899    -0.19400
C2959       C  0.61442378  0.06449652  0.29880058    -0.20600
C2960       C  0.62180132  0.05444679  0.30711281    -0.19200
C2961       C  0.63563922  0.04996631  0.30320376     0.20000
C2962       C  0.64218647  0.05548820  0.29050825     0.02100
C2963       C  0.65637423  0.05114628  0.28731102    -0.13900
C2964       C  0.66358551  0.04141213  0.29606718    -0.11600
C2965       C  0.65699077  0.03559164  0.30832012     0.01700
C2966       C  0.64302650  0.04002574  0.31192346    -0.23800
H2967       H  0.63750533  0.08598868  0.25144292     0.09700
H2968       H  0.65011050  0.06752267  0.26416180     0.13200
H2969       H  0.60297154  0.08469916  0.28212012     0.12000
H2970       H  0.60384825  0.06797175  0.30225889     0.13200
H2971       H  0.61673472  0.05031089  0.31677787     0.12200
H2972       H  0.66230671  0.05514081  0.27818917     0.09300
H2973       H  0.67440426  0.03831218  0.29305781     0.12500
H2974       H  0.63784481  0.03565511  0.32142764     0.14400
C2975       C  0.58647779  0.11879951  0.23893193    -0.01100
C2976       C  0.58190832  0.11134185  0.22669370    -0.09100
C2977       C  0.57216113  0.11761599  0.21714856    -0.18000
C2978       C  0.56680357  0.13166714  0.21957788     0.04400
C2979       C  0.57109364  0.13887629  0.23239971     0.18600
C2980       C  0.58088922  0.13243532  0.24184804    -0.19400
C2981       C  0.56591016  0.15264191  0.23554772    -0.20600
C2982       C  0.55674038  0.15960094  0.22606685    -0.19200
C2983       C  0.55269514  0.15302201  0.21314254     0.20000
C2984       C  0.55760161  0.13895404  0.20967281     0.02100
C2985       C  0.55328674  0.13296630  0.19633300    -0.13900
C2986       C  0.54443190  0.14063998  0.18690795    -0.11600
C2987       C  0.53961997  0.15447009  0.19046462     0.01700
C2988       C  0.54381362  0.16054998  0.20361773    -0.23800
H2989       H  0.58642822  0.10093515  0.22408241     0.09700
H2990       H  0.56928963  0.11132814  0.20783418     0.13200
H2991       H  0.58452985  0.13821082  0.25132773     0.12000
H2992       H  0.56908222  0.15812493  0.24534946     0.13200
H2993       H  0.55295939  0.17030774  0.22876357     0.12200
H2994       H  0.55661952  0.12242371  0.19282928     0.09300
H2995       H  0.54129357  0.13568312  0.17683140     0.12500
H2996       H  0.54011421  0.17122961  0.20654510     0.14400
C2997       C  0.58901413  0.08891494  0.25332066    -0.01100
C2998       C  0.57805210  0.08894761  0.26359412    -0.09100
C2999       C  0.56765358  0.07805802  0.26373036    -0.18000
C3000       C  0.56778412  0.06694435  0.25328126     0.04400
C3001       C  0.57882687  0.06725831  0.24266757     0.18600
C3002       C  0.58947669  0.07799330  0.24300193    -0.19400
C3003       C  0.57907967  0.05696919  0.23167365    -0.20600
C3004       C  0.56850202  0.04641581  0.23085808    -0.19200
C3005       C  0.55763151  0.04562476  0.24125155     0.20000
C3006       C  0.55727264  0.05567852  0.25280762     0.02100
C3007       C  0.54648036  0.05390877  0.26341245    -0.13900
C3008       C  0.53638394  0.04277806  0.26242922    -0.11600
C3009       C  0.53650044  0.03324703  0.25074689     0.01700
C3010       C  0.54714590  0.03475423  0.24018299    -0.23800
H3011       H  0.57764519  0.09741116  0.27160383     0.09700
H3012       H  0.55950841  0.07878739  0.27195009     0.13200
H3013       H  0.59799967  0.07810740  0.23503534     0.12000
H3014       H  0.58741342  0.05720805  0.22351597     0.13200
H3015       H  0.56890023  0.03872904  0.22208756     0.12200
H3016       H  0.54567726  0.06082862  0.27268915     0.09300
H3017       H  0.52826651  0.04177329  0.27073993     0.12500
H3018       H  0.54742668  0.02725779  0.23123413     0.14400
C3019       C  0.35487987  0.03412053  0.29207468    -0.01100
C3020       C  0.34878177  0.04247912  0.28113272    -0.09100
C3021       C  0.35673926  0.05315179  0.27427018    -0.18000
C3022       C  0.37120499  0.05582151  0.27811544     0.04400
C3023       C  0.37749423  0.04704707  0.28896837     0.18600
C3024       C  0.36929632  0.03636567  0.29587255    -0.19400
C3025       C  0.39185577  0.04912202  0.29299115    -0.20600
C3026       C  0.40001167  0.06003363  0.28675786    -0.19200
C3027       C  0.39397342  0.06917277  0.27641002     0.20000
C3028       C  0.37953239  0.06706983  0.27179566     0.02100
C3029       C  0.37391230  0.07658931  0.26133727    -0.13900
C3030       C  0.38205706  0.08803773  0.25616610    -0.11600
C3031       C  0.39609268  0.09028562  0.26100712     0.01700
C3032       C  0.40213526  0.08068710  0.27093429    -0.23800
H3033       H  0.33766974  0.04094096  0.27797897     0.09700
H3034       H  0.35116897  0.05915683  0.26607953     0.13200
H3035       H  0.37414293  0.02981856  0.30423329     0.12000
H3036       H  0.39675829  0.04238356  0.30115766     0.13200
H3037       H  0.41103587  0.06150591  0.29025132     0.12200
H3038       H  0.36317345  0.07571198  0.25711075     0.09300
H3039       H  0.37729064  0.09530328  0.24838180     0.12500
H3040       H  0.41297031  0.08251657  0.27483277     0.14400
C3041       C  0.43219239  0.12275528  0.23828924    -0.01100
C3042       C  0.43718700  0.11495461  0.22641252    -0.09100
C3043       C  0.44718387  0.12099126  0.21694028    -0.18000
C3044       C  0.45238863  0.13517194  0.21900699     0.04400
C3045       C  0.44754542  0.14284230  0.23133958     0.18600
C3046       C  0.43759640  0.13658867  0.24080229    -0.19400
C3047       C  0.45235041  0.15686817  0.23398224    -0.20600
C3048       C  0.46177041  0.16357762  0.22452435    -0.19200
C3049       C  0.46658749  0.15643547  0.21217580     0.20000
C3050       C  0.46201070  0.14212119  0.20921319     0.02100
C3051       C  0.46717396  0.13548606  0.19651483    -0.13900
C3052       C  0.47655309  0.14272825  0.18725804    -0.11600
C3053       C  0.48112468  0.15677861  0.19031881     0.01700
C3054       C  0.47601649  0.16356811  0.20278467    -0.23800
H3055       H  0.43285520  0.10440792  0.22400160     0.09700
H3056       H  0.45034471  0.11441067  0.20793196     0.13200
H3057       H  0.43369560  0.14267841  0.24997032     0.12000
H3058       H  0.44869840  0.16274503  0.24337774     0.13200
H3059       H  0.46524843  0.17447713  0.22684558     0.12200
H3060       H  0.46421434  0.12470012  0.19343778     0.09300
H3061       H  0.48038707  0.13719175  0.17774081     0.12500
H3062       H  0.47947584  0.17443742  0.20529054     0.14400
C3063       C  0.42726511  0.09174866  0.24992593    -0.01100
C3064       C  0.42375838  0.07951986  0.24190722    -0.09100
C3065       C  0.43298992  0.06767582  0.24157812    -0.18000
C3066       C  0.44599746  0.06767536  0.24950276     0.04400
C3067       C  0.44929546  0.08006772  0.25788745     0.18600
C3068       C  0.44007253  0.09203874  0.25779428    -0.19400
C3069       C  0.46165771  0.08035608  0.26647330    -0.20600
C3070       C  0.47084566  0.06855969  0.26696857    -0.19200
C3071       C  0.46812886  0.05635793  0.25855313     0.20000
C3072       C  0.45578478  0.05581706  0.24950802     0.02100
C3073       C  0.45396990  0.04356816  0.24062512    -0.13900
C3074       C  0.46406886  0.03245614  0.24062090    -0.11600
C3075       C  0.47600820  0.03297589  0.24973126     0.01700
C3076       C  0.47789165  0.04481490  0.25884815    -0.23800
H3077       H  0.41377745  0.07916891  0.23591087     0.09700
H3078       H  0.42949689  0.05859146  0.23527059     0.13200
H3079       H  0.44258406  0.10147740  0.26418885     0.12000
H3080       H  0.46416818  0.08972590  0.27296305     0.13200
H3081       H  0.48027916  0.06908167  0.27380256     0.12200
H3082       H  0.44509821  0.04243603  0.23325572     0.09300
H3083       H  0.46254284  0.02337165  0.23345844     0.12500
H3084       H  0.48731144  0.04530455  0.26572136     0.14400
C3085       C  0.62271731  0.92445627  0.25839868    -0.01100
C3086       C  0.61473226  0.93043439  0.26967728    -0.09100
C3087       C  0.62052735  0.94135990  0.27825316    -0.18000
C3088       C  0.63465090  0.94654846  0.27586742     0.04400
C3089       C  0.64244817  0.94079892  0.26401607     0.18600
C3090       C  0.63645441  0.92987470  0.25547711    -0.19400
C3091       C  0.65636891  0.94565233  0.26099949    -0.20600
C3092       C  0.66294345  0.95581602  0.26976931    -0.19200
C3093       C  0.65579746  0.96130397  0.28183172     0.20000
C3094       C  0.64149181  0.95688686  0.28500589     0.02100
C3095       C  0.63485093  0.96272533  0.29740337    -0.13900
C3096       C  0.64223902  0.97223540  0.30641471    -0.11600
C3097       C  0.65641051  0.97636847  0.30334540     0.01700
C3098       C  0.66302713  0.97099759  0.29089682    -0.23800
H3099       H  0.60423244  0.92619611  0.27236006     0.09700
H3100       H  0.61382184  0.94524814  0.28687063     0.13200
H3101       H  0.64265684  0.92527386  0.24672264     0.12000
H3102       H  0.66231362  0.94137987  0.25191688     0.13200
H3103       H  0.67381530  0.95920113  0.26725215     0.12200
H3104       H  0.62403339  0.96001803  0.30055039     0.09300
H3105       H  0.63679777  0.97634753  0.31586965     0.12500
H3106       H  0.67396680  0.97415521  0.28835999     0.14400
C3107       C  0.59150764  0.88867414  0.23302356    -0.01100
C3108       C  0.58415348  0.89540425  0.22174205    -0.09100
C3109       C  0.57363995  0.88797086  0.21394969    -0.18000
C3110       C  0.57020773  0.87347124  0.21722528     0.04400
C3111       C  0.57741774  0.86691304  0.22903115     0.18600
C3112       C  0.58798781  0.87449086  0.23668460    -0.19400
C3113       C  0.57422577  0.85273888  0.23301168    -0.20600
C3114       C  0.56408579  0.84481495  0.22542579    -0.19200
C3115       C  0.55704578  0.85079573  0.21353701     0.20000
C3116       C  0.56003052  0.86518016  0.20918105     0.02100
C3117       C  0.55286010  0.87050515  0.19684211    -0.13900
C3118       C  0.54310138  0.86193004  0.18925267    -0.11600
C3119       C  0.54005466  0.84784941  0.19374895     0.01700
C3120       C  0.54708077  0.84238394  0.20592371    -0.23800
H3121       H  0.58691824  0.90625880  0.21853011     0.09700
H3122       H  0.56852696  0.89380759  0.20533168     0.13200
H3123       H  0.59367018  0.86926988  0.24544856     0.12000
H3124       H  0.57964685  0.84772215  0.24204364     0.13200
H3125       H  0.56185747  0.83385678  0.22878509     0.12200
H3126       H  0.55463058  0.88120590  0.19271688     0.09300
H3127       H  0.53778213  0.86643344  0.17990587     0.12500
H3128       H  0.54487606  0.83147010  0.20945746     0.14400
C3129       C  0.59268090  0.91969020  0.24507816    -0.01100
C3130       C  0.59324286  0.93092217  0.23511445    -0.09100
C3131       C  0.58228329  0.94115463  0.23451249    -0.18000
C3132       C  0.57058329  0.94063710  0.24424581     0.04400
C3133       C  0.57042014  0.92945147  0.25472795     0.18600
C3134       C  0.58122080  0.91887460  0.25477680    -0.19400
C3135       C  0.55965069  0.92907093  0.26524768    -0.20600
C3136       C  0.54911539  0.93968643  0.26571223    -0.19200
C3137       C  0.54877456  0.95062270  0.25533843     0.20000
C3138       C  0.55925734  0.95101668  0.24419814     0.02100
C3139       C  0.55786172  0.96170935  0.23343453    -0.13900
C3140       C  0.54681056  0.97186179  0.23400790    -0.11600
C3141       C  0.53695846  0.97185243  0.24540148     0.01700
C3142       C  0.53795884  0.96115811  0.25600126    -0.23800
H3143       H  0.60219839  0.93165737  0.22769356     0.09700
H3144       H  0.58348002  0.94955159  0.22659158     0.13200
H3145       H  0.58103514  0.91024592  0.26264214     0.12000
H3146       H  0.55953586  0.92066064  0.27334274     0.13200
H3147       H  0.54108535  0.93925448  0.27416222     0.12200
H3148       H  0.56500724  0.96237649  0.22432218     0.09300
H3149       H  0.54613421  0.97993920  0.22561450     0.12500
H3150       H  0.53015540  0.96090683  0.26467853     0.14400
C3151       C  0.38947784  0.92141377  0.24977939    -0.01100
C3152       C  0.39631649  0.92755890  0.26169223    -0.09100
C3153       C  0.38939924  0.93802700  0.26993933    -0.18000
C3154       C  0.37529158  0.94260544  0.26653670     0.04400
C3155       C  0.36863460  0.93667330  0.25409545     0.18600
C3156       C  0.37569815  0.92610384  0.24596410    -0.19400
C3157       C  0.35489973  0.94118732  0.24993530    -0.20600
C3158       C  0.34757841  0.95150816  0.25789364    -0.19200
C3159       C  0.35368291  0.95731230  0.27038461     0.20000
C3160       C  0.36753857  0.95280497  0.27501944     0.02100
C3161       C  0.37292172  0.95855956  0.28804801    -0.13900
C3162       C  0.36505144  0.96865345  0.29590057    -0.11600
C3163       C  0.35161576  0.97340881  0.29104282     0.01700
C3164       C  0.34596315  0.96759366  0.27830431    -0.23800
H3165       H  0.40682431  0.92385534  0.26504575     0.09700
H3166       H  0.39533967  0.94222177  0.27896689     0.13200
H3167       H  0.37039014  0.92135182  0.23671255     0.12000
H3168       H  0.34980137  0.93673911  0.24042920     0.13200
H3169       H  0.33699582  0.95486133  0.25433645     0.12200
H3170       H  0.38313082  0.95541776  0.29252862     0.09300
H3171       H  0.36962764  0.97288544  0.30575399     0.12500
H3172       H  0.33549630  0.97106348  0.27450899     0.14400
C3173       C  0.42479863  0.88749228  0.22794472    -0.01100
C3174       C  0.43315024  0.89465574  0.21767153    -0.09100
C3175       C  0.44475083  0.88772153  0.21111707    -0.18000
C3176       C  0.44823863  0.87330387  0.21463366     0.04400
C3177       C  0.44013604  0.86643359  0.22566542     0.18600
C3178       C  0.42851241  0.87352036  0.23210016    -0.19400
C3179       C  0.44341398  0.85238398  0.22996355    -0.20600
C3180       C  0.45436232  0.84478874  0.22325396    -0.19200
C3181       C  0.46210654  0.85097827  0.21192103     0.20000
C3182       C  0.45921031  0.86533008  0.20742768     0.02100
C3183       C  0.46710530  0.87085990  0.19562931    -0.13900
C3184       C  0.47731489  0.86241905  0.18854261    -0.11600
C3185       C  0.48011826  0.84831210  0.19307929     0.01700
C3186       C  0.47255918  0.84273529  0.20486825    -0.23800
H3187       H  0.43035371  0.90543836  0.21423853     0.09700
H3188       H  0.45060870  0.89383923  0.20318883     0.13200
H3189       H  0.42210811  0.86804084  0.24018950     0.12000
H3190       H  0.43735232  0.84716742  0.23846546     0.13200
H3191       H  0.45656712  0.83386751  0.22673785     0.12200
H3192       H  0.46547275  0.88156141  0.19145420     0.09300
H3193       H  0.48308329  0.86699872  0.17949870     0.12500
H3194       H  0.47460254  0.83179909  0.20842278     0.14400
C3195       C  0.42116576  0.91812079  0.23994546    -0.01100
C3196       C  0.43249921  0.91592086  0.24955933    -0.09100
C3197       C  0.44349265  0.92609654  0.25087479    -0.18000
C3198       C  0.44361064  0.93870057  0.24228382     0.04400
C3199       C  0.43233336  0.94051463  0.23208935     0.18600
C3200       C  0.42108581  0.93041903  0.23125819    -0.19400
C3201       C  0.43244378  0.95230035  0.22269072    -0.20600
C3202       C  0.44352172  0.96237123  0.22318708    -0.19200
C3203       C  0.45450706  0.96118787  0.23342767     0.20000
C3204       C  0.45456771  0.94947501  0.24331222     0.02100
C3205       C  0.46542123  0.94923688  0.25398093    -0.13900
C3206       C  0.47577942  0.96011377  0.25473841    -0.11600
C3207       C  0.47590933  0.97139272  0.24473888     0.01700
C3208       C  0.46531393  0.97179856  0.23401219    -0.23800
H3209       H  0.43272785  0.90630400  0.25615655     0.09700
H3210       H  0.45188810  0.92365293  0.25848547     0.13200
H3211       H  0.41240908  0.93187810  0.22360169     0.12000
H3212       H  0.42397108  0.95366361  0.21479519     0.13200
H3213       H  0.44335558  0.97129816  0.21566686     0.12200
H3214       H  0.46599748  0.94097378  0.26210873     0.09300
H3215       H  0.48385160  0.95961926  0.26313479     0.12500
H3216       H  0.46523063  0.98063744  0.22637510     0.14400
C3217       C  0.26591039  0.08324482  0.60317511    -0.01100
C3218       C  0.27638325  0.07540409  0.59573310    -0.09100
C3219       C  0.28382670  0.06423955  0.60252562    -0.18000
C3220       C  0.28109162  0.06070315  0.61710296     0.04400
C3221       C  0.27010951  0.06845797  0.62440235     0.18600
C3222       C  0.26270189  0.07956753  0.61742135    -0.19400
C3223       C  0.26673460  0.06528841  0.63872827    -0.20600
C3224       C  0.27411884  0.05459740  0.64607591    -0.19200
C3225       C  0.28516679  0.04694042  0.63932479     0.20000
C3226       C  0.28891039  0.04990674  0.62477089     0.02100
C3227       C  0.30043929  0.04207179  0.61865385    -0.13900
C3228       C  0.30778435  0.03164463  0.62662089    -0.11600
C3229       C  0.30381547  0.02859444  0.64084920     0.01700
C3230       C  0.29251834  0.03632813  0.64711924    -0.23800
H3231       H  0.27926347  0.07824709  0.58480608     0.09700
H3232       H  0.29180184  0.05874709  0.59615135     0.13200
H3233       H  0.25453045  0.08558089  0.62319260     0.12000
H3234       H  0.25834859  0.07116023  0.64431426     0.13200
H3235       H  0.27125016  0.05238991  0.65717313     0.12200
H3236       H  0.30407964  0.04377701  0.60776985     0.09300
H3237       H  0.31645503  0.02576565  0.62151789     0.12500
H3238       H  0.28943752  0.03411753  0.65816587     0.14400
C3239       C  0.19943467  0.15033999  0.51553520    -0.01100
C3240       C  0.21134145  0.15790936  0.52085416    -0.09100
C3241       C  0.22065492  0.15159250  0.53073298    -0.18000
C3242       C  0.21833399  0.13739783  0.53569408     0.04400
C3243       C  0.20660948  0.12952773  0.52977715     0.18600
C3244       C  0.19728851  0.13604369  0.51983835    -0.19400
C3245       C  0.20409301  0.11528917  0.53401379    -0.20600
C3246       C  0.21269337  0.10882057  0.54438616    -0.19200
C3247       C  0.22391329  0.11649161  0.55086280     0.20000
C3248       C  0.22701348  0.13084908  0.54652401     0.02100
C3249       C  0.23831964  0.13819184  0.55360921    -0.13900
C3250       C  0.24590391  0.13167486  0.56478360    -0.11600
C3251       C  0.24265154  0.11763217  0.56909973     0.01700
C3252       C  0.23175154  0.11003634  0.56201702    -0.23800
H3253       H  0.21339550  0.16890920  0.51754742     0.09700
H3254       H  0.22949193  0.15816895  0.53433384     0.13200
H3255       H  0.18824698  0.13001245  0.51559066     0.12000
H3256       H  0.19527809  0.10917957  0.52942757     0.13200
H3257       H  0.21034714  0.09784331  0.54760024     0.12200
H3258       H  0.24135336  0.14908920  0.55104938     0.09300
H3259       H  0.25428161  0.13770711  0.57020740     0.12500
H3260       H  0.22889827  0.09930893  0.56562434     0.14400
C3261       C  0.25474790  0.08701039  0.57179765    -0.01100
C3262       C  0.26214456  0.08980358  0.55900247    -0.09100
C3263       C  0.26192842  0.07991745  0.54769093    -0.18000
C3264       C  0.25406492  0.06690757  0.54878600     0.04400
C3265       C  0.24634664  0.06427241  0.56176299     0.18600
C3266       C  0.24695447  0.07419377  0.57319438    -0.19400
C3267       C  0.23788967  0.05187436  0.56315095    -0.20600
C3268       C  0.23678149  0.04208243  0.55186579    -0.19200
C3269       C  0.24440048  0.04424225  0.53904020     0.20000
C3270       C  0.25340309  0.05653538  0.53741786     0.02100
C3271       C  0.26147169  0.05779873  0.52454977    -0.13900
C3272       C  0.26053142  0.04737046  0.51375166    -0.11600
C3273       C  0.25129465  0.03557976  0.51523105     0.01700
C3274       C  0.24319127  0.03409109  0.52785516    -0.23800
H3275       H  0.26808133  0.09976871  0.55778459     0.09700
H3276       H  0.26777132  0.08291845  0.53813240     0.13200
H3277       H  0.24103016  0.07220682  0.58305181     0.12000
H3278       H  0.23193364  0.04982715  0.57297405     0.13200
H3279       H  0.23000537  0.03267753  0.55322874     0.12200
H3280       H  0.26880640  0.06657280  0.52260499     0.09300
H3281       H  0.26692995  0.04862116  0.50407846     0.12500
H3282       H  0.23622319  0.02480075  0.52911129     0.14400
C3283       C  0.26288537  0.08678167  0.36722880    -0.01100
C3284       C  0.27331693  0.07978502  0.37555909    -0.09100
C3285       C  0.28233894  0.06941010  0.36943733    -0.18000
C3286       C  0.28133320  0.06587787  0.35464644     0.04400
C3287       C  0.27062254  0.07297877  0.34632973     0.18600
C3288       C  0.26155200  0.08320890  0.35266517    -0.19400
C3289       C  0.26914220  0.07004242  0.33164630    -0.20600
C3290       C  0.27814281  0.06022637  0.32493920    -0.19200
C3291       C  0.28881924  0.05307852  0.33275881     0.20000
C3292       C  0.29062070  0.05573964  0.34772574     0.02100
C3293       C  0.30166193  0.04816693  0.35500700    -0.13900
C3294       C  0.31042070  0.03831963  0.34770932    -0.11600
C3295       C  0.30842580  0.03567610  0.33299164     0.01700
C3296       C  0.29765275  0.04319161  0.32561761    -0.23800
H3297       H  0.27488320  0.08266320  0.38673628     0.09700
H3298       H  0.29017002  0.06456785  0.37648468     0.13200
H3299       H  0.25350361  0.08859944  0.34615425     0.12000
H3300       H  0.26100718  0.07544677  0.32527097     0.13200
H3301       H  0.27674283  0.05821535  0.31352806     0.12200
H3302       H  0.30373641  0.04954447  0.36633870     0.09300
H3303       H  0.31861020  0.03256640  0.35367878     0.12500
H3304       H  0.29603200  0.04127990  0.31421280     0.14400
C3305       C  0.23445862  0.11843439  0.40031054    -0.01100
C3306       C  0.22451299  0.11001440  0.40787505    -0.09100
C3307       C  0.21660133  0.11587044  0.41924475    -0.18000
C3308       C  0.21826253  0.13049124  0.42326031     0.04400
C3309       C  0.22843433  0.13892458  0.41553333     0.18600
C3310       C  0.23639795  0.13284490  0.40426307    -0.19400
C3311       C  0.23044997  0.15346591  0.41890671    -0.20600
C3312       C  0.22240205  0.15994640  0.42969071    -0.19200
C3313       C  0.21219232  0.15202550  0.43741604     0.20000
C3314       C  0.21003798  0.13714777  0.43442637     0.02100
C3315       C  0.19965321  0.12966276  0.44266264    -0.13900
C3316       C  0.19161777  0.13671711  0.45321200    -0.11600
C3317       C  0.19370829  0.15140164  0.45601578     0.01700
C3318       C  0.20408710  0.15895577  0.44811187    -0.23800
H3319       H  0.22251804  0.09896245  0.40475609     0.09700
H3320       H  0.20907763  0.10875236  0.42446559     0.13200
H3321       H  0.24408516  0.13941449  0.39842013     0.12000
H3322       H  0.23820767  0.15992483  0.41304986     0.13200
H3323       H  0.22412677  0.17126851  0.43195365     0.12200
H3324       H  0.19748133  0.11835452  0.44123906     0.09300
H3325       H  0.18382284  0.13056146  0.45932375     0.12500
H3326       H  0.20584705  0.17030369  0.45024302     0.14400
C3327       C  0.24863934  0.08844651  0.39738489    -0.01100
C3328       C  0.24270036  0.07491876  0.39454885    -0.09100
C3329       C  0.24253718  0.06425022  0.40514599    -0.18000
C3330       C  0.24846743  0.06682572  0.41895131     0.04400
C3331       C  0.25489549  0.08048850  0.42155443     0.18600
C3332       C  0.25476131  0.09117388  0.41085760    -0.19400
C3333       C  0.26146935  0.08338911  0.43478972    -0.20600
C3334       C  0.26190296  0.07296336  0.44552867    -0.19200
C3335       C  0.25541030  0.05952313  0.44344912     0.20000
C3336       C  0.24834781  0.05634273  0.43022433     0.02100
C3337       C  0.24126932  0.04290383  0.42897707    -0.13900
C3338       C  0.24131020  0.03305158  0.44033166    -0.11600
C3339       C  0.24865460  0.03609957  0.45309015     0.01700
C3340       C  0.25578255  0.04927587  0.45459533    -0.23800
H3341       H  0.23802793  0.07269687  0.38410229     0.09700
H3342       H  0.23783899  0.05407462  0.40215209     0.13200
H3343       H  0.25952560  0.10163448  0.41290539     0.12000
H3344       H  0.26643126  0.09376060  0.43680519     0.13200
H3345       H  0.26719886  0.07549927  0.45560959     0.12200
H3346       H  0.23538883  0.03978866  0.41948201     0.09300
H3347       H  0.23574539  0.02286975  0.43906779     0.12500
H3348       H  0.26133245  0.05166046  0.46458750     0.14400
C3349       C  0.30058588  0.96943418  0.63649560    -0.01100
C3350       C  0.30581264  0.96512233  0.62302275    -0.09100
C3351       C  0.29754316  0.95628426  0.61405660    -0.18000
C3352       C  0.28376259  0.95142840  0.61839127     0.04400
C3353       C  0.27856649  0.95593506  0.63205629     0.18600
C3354       C  0.28689920  0.96486468  0.64083200    -0.19400
C3355       C  0.26516108  0.95131662  0.63708086    -0.20600
C3356       C  0.25695923  0.94179352  0.62906481    -0.19200
C3357       C  0.26188056  0.93685161  0.61574686     0.20000
C3358       C  0.27512516  0.94191397  0.60995097     0.02100
C3359       C  0.27925375  0.93689144  0.59616590    -0.13900
C3360       C  0.27105356  0.92652895  0.58897408    -0.11600
C3361       C  0.25858434  0.92096678  0.59529767     0.01700
C3362       C  0.25384628  0.92642527  0.60844490    -0.23800
H3363       H  0.31633021  0.96857884  0.61938389     0.09700
H3364       H  0.30230387  0.95327633  0.60391676     0.13200
H3365       H  0.28269103  0.96814653  0.65121411     0.12000
H3366       H  0.26114117  0.95481909  0.64746098     0.13200
H3367       H  0.24679940  0.93807732  0.63342774     0.12200
H3368       H  0.28890081  0.94049872  0.59083767     0.09300
H3369       H  0.27486255  0.92231535  0.57878978     0.12500
H3370       H  0.24410992  0.92211762  0.61324276     0.14400
C3371       C  0.23796299  0.88524426  0.56123173    -0.01100
C3372       C  0.24368224  0.87195465  0.55717105    -0.09100
C3373       C  0.23746076  0.86399526  0.54611572    -0.18000
C3374       C  0.22501644  0.86900570  0.53895474     0.04400
C3375       C  0.21946117  0.88272839  0.54292533     0.18600
C3376       C  0.22607242  0.89078473  0.55388336    -0.19400
C3377       C  0.20706501  0.88808766  0.53629015    -0.20600
C3378       C  0.19983422  0.87995872  0.52601987    -0.19200
C3379       C  0.20487850  0.86631717  0.52207813     0.20000
C3380       C  0.21766403  0.86072038  0.52831826     0.02100
C3381       C  0.22238991  0.84696397  0.52380523    -0.13900
C3382       C  0.21461675  0.83903248  0.51372614    -0.11600
C3383       C  0.20188087  0.84446845  0.50782681     0.01700
C3384       C  0.19712323  0.85817300  0.51199247    -0.23800
H3385       H  0.25289649  0.86756646  0.56280616     0.09700
H3386       H  0.24243834  0.85380615  0.54374657     0.13200
H3387       H  0.22152022  0.90100488  0.55721572     0.12000
H3388       H  0.20278786  0.89853293  0.53924658     0.13200
H3389       H  0.19014127  0.88431648  0.52122672     0.12200
H3390       H  0.23202687  0.84197921  0.52784523     0.09300
H3391       H  0.21858106  0.82851325  0.51062306     0.12500
H3392       H  0.18736718  0.86256051  0.50734615     0.14400
C3393       C  0.24737579  0.91717928  0.56442446    -0.01100
C3394       C  0.25511503  0.91515946  0.55169483    -0.09100
C3395       C  0.25576438  0.92604197  0.54131592    -0.18000
C3396       C  0.24847763  0.93927732  0.54334608     0.04400
C3397       C  0.24010376  0.94095301  0.55605105     0.18600
C3398       C  0.23984274  0.93004651  0.56652743    -0.19400
C3399       C  0.23200976  0.95347350  0.55819927    -0.20600
C3400       C  0.23193149  0.96436236  0.54791485    -0.19200
C3401       C  0.24036034  0.96323105  0.53548081     0.20000
C3402       C  0.24905750  0.95083556  0.53318839     0.02100
C3403       C  0.25814805  0.95068867  0.52097074    -0.13900
C3404       C  0.25833884  0.96222054  0.51131092    -0.11600
C3405       C  0.24926761  0.97405935  0.51330064     0.01700
C3406       C  0.24026974  0.97450739  0.52537512    -0.23800
H3407       H  0.26091372  0.90520365  0.54993888     0.09700
H3408       H  0.26190277  0.92371754  0.53175444     0.13200
H3409       H  0.23368618  0.93146176  0.57633982     0.12000
H3410       H  0.22554706  0.95477589  0.56782399     0.13200
H3411       H  0.22539062  0.97383406  0.54980143     0.12200
H3412       H  0.26542662  0.94194444  0.51873416     0.09300
H3413       H  0.26542266  0.96175793  0.50205753     0.12500
H3414       H  0.23342791  0.98381419  0.52705879     0.14400
C3415       C  0.25570752  0.92965119  0.36698971    -0.01100
C3416       C  0.26801354  0.93373941  0.37460440    -0.09100
C3417       C  0.27743017  0.94394494  0.36890300    -0.18000
C3418       C  0.27480273  0.95021382  0.35527313     0.04400
C3419       C  0.26169550  0.94673939  0.34817227     0.18600
C3420       C  0.25235975  0.93648082  0.35403961    -0.19400
C3421       C  0.25824760  0.95305785  0.33496282    -0.20600
C3422       C  0.26782297  0.96237371  0.32831155    -0.19200
C3423       C  0.28115909  0.96535353  0.33460128     0.20000
C3424       C  0.28485156  0.95941977  0.34821346     0.02100
C3425       C  0.29863242  0.96254993  0.35387300    -0.13900
C3426       C  0.30830459  0.97119150  0.34628547    -0.11600
C3427       C  0.30455228  0.97699671  0.33288910     0.01700
C3428       C  0.29092630  0.97407141  0.32717560    -0.23800
H3429       H  0.27082730  0.92842831  0.38459060     0.09700
H3430       H  0.28683480  0.94638423  0.37522145     0.13200
H3431       H  0.24274088  0.93332367  0.34822794     0.12000
H3432       H  0.24818831  0.95057425  0.32961260     0.13200
H3433       H  0.26493727  0.96697192  0.31797968     0.12200
H3434       H  0.30234490  0.95833296  0.36401801     0.09300
H3435       H  0.31875816  0.97334460  0.35095945     0.12500
H3436       H  0.28786556  0.97856700  0.31684406     0.14400
C3437       C  0.19829682  0.84721976  0.44830076    -0.01100
C3438       C  0.19381890  0.86153411  0.44692736    -0.09100
C3439       C  0.20058725  0.87079174  0.43726863    -0.18000
C3440       C  0.21204080  0.86594294  0.42851941     0.04400
C3441       C  0.21634908  0.85129946  0.42976052     0.18600
C3442       C  0.20958181  0.84216769  0.43968857    -0.19400
C3443       C  0.22729212  0.84581354  0.42100347    -0.20600
C3444       C  0.23392671  0.85452374  0.41082700    -0.19200
C3445       C  0.22993699  0.86897332  0.40936309     0.20000
C3446       C  0.21915682  0.87499893  0.41838148     0.02100
C3447       C  0.21586248  0.88978476  0.41671670    -0.13900
C3448       C  0.22247617  0.89801604  0.40605875    -0.11600
C3449       C  0.23265705  0.89183966  0.39689544     0.01700
C3450       C  0.23649995  0.87739365  0.39872775    -0.23800
H3451       H  0.18513444  0.86568746  0.45349582     0.09700
H3452       H  0.19648002  0.88162596  0.43682652     0.13200
H3453       H  0.21303274  0.83104936  0.44060751     0.12000
H3454       H  0.23060073  0.83465602  0.42189000     0.13200
H3455       H  0.24219662  0.84991373  0.40401667     0.12200
H3456       H  0.20810022  0.89528542  0.42333331     0.09300
H3457       H  0.21917990  0.90910294  0.40465862     0.12500
H3458       H  0.24450481  0.87264147  0.39168549     0.14400
C3459       C  0.24345205  0.92346808  0.39695810    -0.01100
C3460       C  0.25256918  0.92088841  0.40861913    -0.09100
C3461       C  0.25350516  0.93078831  0.41991948    -0.18000
C3462       C  0.24504501  0.94347200  0.41996910     0.04400
C3463       C  0.23515336  0.94551400  0.40847466     0.18600
C3464       C  0.23471524  0.93572406  0.39695232    -0.19400
C3465       C  0.22575885  0.95728833  0.40857356    -0.20600
C3466       C  0.22597722  0.96713123  0.41986660    -0.19200
C3467       C  0.23601630  0.96579050  0.43101939     0.20000
C3468       C  0.24593896  0.95412894  0.43104267     0.02100
C3469       C  0.25657553  0.95387071  0.44192070    -0.13900
C3470       C  0.25716173  0.96459691  0.45244583    -0.11600
C3471       C  0.24699309  0.97569525  0.45272561     0.01700
C3472       C  0.23638270  0.97619877  0.44202596    -0.23800
H3473       H  0.25921963  0.91132028  0.40877395     0.09700
H3474       H  0.26077180  0.92813266  0.42855946     0.13200
H3475       H  0.22746824  0.93749330  0.38798255     0.12000
H3476       H  0.21808235  0.95881324  0.39992696     0.13200
H3477       H  0.21844931  0.97603694  0.41970979     0.12200
H3478       H  0.26481475  0.94572353  0.44235644     0.09300
H3479       H  0.26551871  0.96409840  0.46055847     0.12500
H3480       H  0.22867339  0.98496010  0.44202941     0.14400
C3481       C  0.09606723  0.72968080  0.59601591    -0.01100
C3482       C  0.08846440  0.71771816  0.59100867    -0.09100
C3483       C  0.07769903  0.71147465  0.59943565    -0.18000
C3484       C  0.07423955  0.71711008  0.61318605     0.04400
C3485       C  0.08161069  0.72969115  0.61784322     0.18600
C3486       C  0.09247777  0.73574697  0.60930989    -0.19400
C3487       C  0.07833862  0.73597301  0.63113417    -0.20600
C3488       C  0.06810948  0.72981510  0.64013985    -0.19200
C3489       C  0.06104836  0.71711751  0.63615582     0.20000
C3490       C  0.06395982  0.71060479  0.62259198     0.02100
C3491       C  0.05670882  0.69767416  0.61919999    -0.13900
C3492       C  0.04714986  0.69140541  0.62891483    -0.11600
C3493       C  0.04435237  0.69779733  0.64229928     0.01700
C3494       C  0.05124295  0.71076353  0.64577923    -0.23800
H3495       H  0.09122766  0.71284459  0.58078047     0.09700
H3496       H  0.07244327  0.70216024  0.59495968     0.13200
H3497       H  0.09837103  0.74508614  0.61311692     0.12000
H3498       H  0.08384263  0.74564258  0.63465997     0.13200
H3499       H  0.06590383  0.73487569  0.65041953     0.12200
H3500       H  0.05831386  0.69200622  0.60921626     0.09300
H3501       H  0.04189675  0.68144858  0.62586245     0.12500
H3502       H  0.04914770  0.71582546  0.65608613     0.14400
C3503       C  0.12816408  0.74951822  0.55787392    -0.01100
C3504       C  0.14194553  0.74606354  0.55297394    -0.09100
C3505       C  0.14857611  0.75426438  0.54232275    -0.18000
C3506       C  0.14165254  0.76644306  0.53638719     0.04400
C3507       C  0.12725828  0.76931726  0.54069644     0.18600
C3508       C  0.12065703  0.76086000  0.55137040    -0.19400
C3509       C  0.11976718  0.78095751  0.53475056    -0.20600
C3510       C  0.12641321  0.79007629  0.52490197    -0.19200
C3511       C  0.14078379  0.78791850  0.52096405     0.20000
C3512       C  0.14861016  0.77604971  0.52662602     0.02100
C3513       C  0.16320161  0.77456497  0.52261733    -0.13900
C3514       C  0.16966974  0.78432513  0.51325172    -0.11600
C3515       C  0.16189407  0.79591073  0.50757535     0.01700
C3516       C  0.14744046  0.79766347  0.51150394    -0.23800
H3517       H  0.14783577  0.73722374  0.55779076     0.09700
H3518       H  0.15923294  0.75095586  0.53922611     0.13200
H3519       H  0.11005421  0.76373065  0.55525883     0.12000
H3520       H  0.10875188  0.78313529  0.53788159     0.13200
H3521       H  0.12036342  0.79906181  0.52057102     0.12200
H3522       H  0.16999436  0.76608221  0.52663768     0.09300
H3523       H  0.18087052  0.78276216  0.51045320     0.12500
H3524       H  0.14131003  0.80657968  0.50713089     0.14400
C3525       C  0.09720562  0.73845033  0.56406065    -0.01100
C3526       C  0.09770744  0.72957723  0.55192497    -0.09100
C3527       C  0.08613689  0.72904409  0.54232442    -0.18000
C3528       C  0.07378894  0.73770115  0.54446880     0.04400
C3529       C  0.07358847  0.74698644  0.55665997     0.18600
C3530       C  0.08510128  0.74703841  0.56645085    -0.19400
C3531       C  0.06202012  0.75635105  0.55887640    -0.20600
C3532       C  0.05076092  0.75697143  0.54905641    -0.19200
C3533       C  0.05054069  0.74788623  0.53703976     0.20000
C3534       C  0.06181027  0.73778019  0.53479693     0.02100
C3535       C  0.06053250  0.72819751  0.52300583    -0.13900
C3536       C  0.04881044  0.72899350  0.51359340    -0.11600
C3537       C  0.03820384  0.73951435  0.51544200     0.01700
C3538       C  0.03908864  0.74886925  0.52722537    -0.23800
H3539       H  0.10707582  0.72293340  0.54998194     0.09700
H3540       H  0.08730080  0.72201508  0.53316871     0.13200
H3541       H  0.08486985  0.75402455  0.57579898     0.12000
H3542       H  0.06182559  0.76347387  0.56811775     0.13200
H3543       H  0.04211655  0.76457213  0.55091583     0.12200
H3544       H  0.06833453  0.71988915  0.52087366     0.09300
H3545       H  0.04822204  0.72158106  0.50460508     0.12500
H3546       H  0.03071416  0.75683306  0.52884958     0.14400
C3547       C  0.08098357  0.73289214  0.36895577    -0.01100
C3548       C  0.07442973  0.72185701  0.37683514    -0.09100
C3549       C  0.06277554  0.71428207  0.37113562    -0.18000
C3550       C  0.05744625  0.71744669  0.35721148     0.04400
C3551       C  0.06392325  0.72898558  0.34949823     0.18600
C3552       C  0.07553000  0.73655311  0.35542076    -0.19400
C3553       C  0.05907106  0.73266603  0.33573379    -0.20600
C3554       C  0.04810358  0.72488801  0.32924402    -0.19200
C3555       C  0.04174698  0.71323290  0.33635859     0.20000
C3556       C  0.04621245  0.70939053  0.35049591     0.02100
C3557       C  0.03942618  0.69747993  0.35713532    -0.13900
C3558       C  0.02884401  0.68962167  0.34993959    -0.11600
C3559       C  0.02458482  0.69340137  0.33597181     0.01700
C3560       C  0.03102292  0.70530055  0.32930632    -0.23800
H3561       H  0.07869542  0.71860836  0.38717074     0.09700
H3562       H  0.05843221  0.70579739  0.37774697     0.13200
H3563       H  0.08059887  0.74513366  0.34932103     0.12000
H3564       H  0.06393994  0.74149854  0.32985246     0.13200
H3565       H  0.04469682  0.72789691  0.31849585     0.12200
H3566       H  0.04209668  0.69389155  0.36783371     0.09300
H3567       H  0.02392300  0.68056524  0.35540591     0.12500
H3568       H  0.02778282  0.70834905  0.31851232     0.14400
C3569       C  0.11822775  0.75624089  0.39967859    -0.01100
C3570       C  0.13236914  0.75230020  0.40280493    -0.09100
C3571       C  0.14042292  0.76002559  0.41278724    -0.18000
C3572       C  0.13459830  0.77221687  0.41979536     0.04400
C3573       C  0.12001676  0.77586409  0.41694536     0.18600
C3574       C  0.11196766  0.76783838  0.40697463    -0.19400
C3575       C  0.11370245  0.78772517  0.42375664    -0.20600
C3576       C  0.12162439  0.79617519  0.43324040    -0.19200
C3577       C  0.13607971  0.79303265  0.43604186     0.20000
C3578       C  0.14278329  0.78101884  0.42934083     0.02100
C3579       C  0.15746687  0.77845844  0.43231625    -0.13900
C3580       C  0.16507752  0.78726876  0.44173558    -0.11600
C3581       C  0.15840140  0.79894977  0.44850163     0.01700
C3582       C  0.14390007  0.80184396  0.44551967    -0.23800
H3583       H  0.13732001  0.74330989  0.39726224     0.09700
H3584       H  0.15122929  0.75628463  0.41456274     0.13200
H3585       H  0.10108903  0.77108745  0.40435623     0.12000
H3586       H  0.10258766  0.79054217  0.42166156     0.13200
H3587       H  0.11644318  0.80530891  0.43832167     0.12200
H3588       H  0.16344668  0.76976375  0.42754446     0.09300
H3589       H  0.17628309  0.78482597  0.44377656     0.12500
H3590       H  0.13862023  0.81087073  0.45069813     0.14400
C3591       C  0.03472348  0.74296706  0.45489961    -0.01100
C3592       C  0.04494476  0.73192948  0.45436268    -0.09100
C3593       C  0.05562364  0.73189551  0.44378221    -0.18000
C3594       C  0.05616922  0.74280365  0.43315524     0.04400
C3595       C  0.04531123  0.75359164  0.43338731     0.18600
C3596       C  0.03496125  0.75377736  0.44440351    -0.19400
C3597       C  0.04475689  0.76404496  0.42254634    -0.20600
C3598       C  0.05467003  0.76393589  0.41134589    -0.19200
C3599       C  0.06571666  0.75372226  0.41102280     0.20000
C3600       C  0.06690277  0.74325639  0.42215230     0.02100
C3601       C  0.07888564  0.73385464  0.42185704    -0.13900
C3602       C  0.08897046  0.73457378  0.41072318    -0.11600
C3603       C  0.08721810  0.74437155  0.39945089     0.01700
C3604       C  0.07564488  0.75393962  0.39964236    -0.23800
H3605       H  0.04485141  0.72342979  0.46235963     0.09700
H3606       H  0.06312748  0.72305629  0.44403050     0.13200
H3607       H  0.02686958  0.76218385  0.44465080     0.12000
H3608       H  0.03644692  0.77222491  0.42259934     0.13200
H3609       H  0.05379897  0.77201672  0.40296728     0.12200
H3610       H  0.08086503  0.72601041  0.43017962     0.09300
H3611       H  0.09801242  0.72722945  0.41067431     0.12500
H3612       H  0.07453090  0.76165536  0.39095024     0.14400
C3613       C  0.92848856  0.73271939  0.60687849    -0.01100
C3614       C  0.93614632  0.72165268  0.60016073    -0.09100
C3615       C  0.94764703  0.71498896  0.60712257    -0.18000
C3616       C  0.95178282  0.71915128  0.62117998     0.04400
C3617       C  0.94417292  0.73068128  0.62777796     0.18600
C3618       C  0.93261501  0.73726211  0.62063536    -0.19400
C3619       C  0.94796382  0.73540524  0.64156739    -0.20600
C3620       C  0.95903310  0.72875885  0.64909473    -0.19200
C3621       C  0.96647081  0.71712485  0.64307758     0.20000
C3622       C  0.96298923  0.71214641  0.62902517     0.02100
C3623       C  0.97068856  0.70018947  0.62358189    -0.13900
C3624       C  0.98124038  0.69338353  0.63181206    -0.11600
C3625       C  0.98461011  0.69832412  0.64564065     0.01700
C3626       C  0.97726205  0.71030387  0.65114339    -0.23800
H3627       H  0.93290764  0.71772040  0.58968880     0.09700
H3628       H  0.95291689  0.70647608  0.60128258     0.13200
H3629       H  0.92667485  0.74584976  0.62585587     0.12000
H3630       H  0.94225259  0.74423670  0.64661489     0.13200
H3631       H  0.96165587  0.73261465  0.65979206     0.12200
H3632       H  0.96872310  0.69571185  0.61306930     0.09300
H3633       H  0.98685094  0.68423233  0.62726419     0.12500
H3634       H  0.97977119  0.71420984  0.66185583     0.14400
C3635       C  0.89393504  0.75341938  0.57123218    -0.01100
C3636       C  0.90126065  0.76428081  0.56377910    -0.09100
C3637       C  0.89425481  0.77250929  0.55334247    -0.18000
C3638       C  0.87951263  0.77033112  0.55028669     0.04400
C3639       C  0.87245820  0.75857226  0.55709661     0.18600
C3640       C  0.87970171  0.75026817  0.56742450    -0.19400
C3641       C  0.85802126  0.75558987  0.55407396    -0.20600
C3642       C  0.85021401  0.76445208  0.54490331    -0.19200
C3643       C  0.85659436  0.77664339  0.53874430     0.20000
C3644       C  0.87137159  0.77970942  0.54122142     0.02100
C3645       C  0.87715724  0.79238873  0.53505727    -0.13900
C3646       C  0.86857064  0.80172263  0.52700467    -0.11600
C3647       C  0.85401093  0.79868211  0.52465210     0.01700
C3648       C  0.84815665  0.78599796  0.53041037    -0.23800
H3649       H  0.91216509  0.76712558  0.56660840     0.09700
H3650       H  0.90054111  0.78081956  0.54824028     0.13200
H3651       H  0.87403025  0.74173422  0.57303611     0.12000
H3652       H  0.85263667  0.74652996  0.55909589     0.13200
H3653       H  0.83897890  0.76200402  0.54297572     0.12200
H3654       H  0.88820660  0.79556823  0.53649427     0.09300
H3655       H  0.87340577  0.81135725  0.52254390     0.12500
H3656       H  0.83690173  0.78350102  0.52863734     0.14400
C3657       C  0.92529198  0.74288559  0.57553246    -0.01100
C3658       C  0.93632296  0.75307352  0.57628484    -0.09100
C3659       C  0.94690863  0.75364356  0.56562848    -0.18000
C3660       C  0.94694621  0.74365734  0.55411558     0.04400
C3661       C  0.93621388  0.73272552  0.55405216     0.18600
C3662       C  0.92529239  0.73270068  0.56448011    -0.19400
C3663       C  0.93648390  0.72186445  0.54362595    -0.20600
C3664       C  0.94712264  0.72169096  0.53312075    -0.19200
C3665       C  0.95737536  0.73271012  0.53242779     0.20000
C3666       C  0.95728784  0.74401683  0.54274783     0.02100
C3667       C  0.96729037  0.75537273  0.54098902    -0.13900
C3668       C  0.97706170  0.75537249  0.52955592    -0.11600
C3669       C  0.97737919  0.74396251  0.51970591     0.01700
C3670       C  0.96755648  0.73262319  0.52127484    -0.23800
H3671       H  0.93649766  0.76081754  0.58499942     0.09700
H3672       H  0.95504781  0.76182838  0.56681369     0.13200
H3673       H  0.91688712  0.72460704  0.56422608     0.12000
H3674       H  0.92847393  0.71337868  0.54366385     0.13200
H3675       H  0.94711682  0.71306158  0.52526404     0.12200
H3676       H  0.96757707  0.76457270  0.54805858     0.09300
H3677       H  0.98450340  0.76429274  0.52850178     0.12500
H3678       H  0.96757283  0.72387154  0.51354334     0.14400
C3679       C  0.92128435  0.74541606  0.37670747    -0.01100
C3680       C  0.92693115  0.73379599  0.38447863    -0.09100
C3681       C  0.93664238  0.72429118  0.37803580    -0.18000
C3682       C  0.94073433  0.72601365  0.36346288     0.04400
C3683       C  0.93545193  0.73827986  0.35594362     0.18600
C3684       C  0.92596593  0.74784432  0.36263761    -0.19400
C3685       C  0.93912054  0.74063394  0.34155388    -0.20600
C3686       C  0.94755244  0.73078384  0.33422792    -0.19200
C3687       C  0.95254402  0.71837912  0.34113693     0.20000
C3688       C  0.94942697  0.71583048  0.35589382     0.02100
C3689       C  0.95487980  0.70305822  0.36222775    -0.13900
C3690       C  0.96301626  0.69325542  0.35415590    -0.11600
C3691       C  0.96594853  0.69589364  0.33959360     0.01700
C3692       C  0.96061755  0.70848182  0.33322839    -0.23800
H3693       H  0.92324238  0.73152812  0.39529306     0.09700
H3694       H  0.94031287  0.71541802  0.38454662     0.13200
H3695       H  0.92163624  0.75688230  0.35663392     0.12000
H3696       H  0.93517212  0.75000352  0.33582186     0.13200
H3697       H  0.95002048  0.73278775  0.32299591     0.12200
H3698       H  0.95305599  0.70035739  0.37336433     0.09300
H3699       H  0.96716339  0.68368963  0.35937805     0.12500
H3700       H  0.96282588  0.71070990  0.32198036     0.14400
C3701       C  0.88638311  0.76935058  0.40950856    -0.01100
C3702       C  0.87240392  0.76499715  0.41287661    -0.09100
C3703       C  0.86491318  0.77143452  0.42412157    -0.18000
C3704       C  0.87116435  0.78269241  0.43223633     0.04400
C3705       C  0.88550984  0.78688279  0.42889330     0.18600
C3706       C  0.89299289  0.78014237  0.41764226    -0.19400
C3707       C  0.89218822  0.79795955  0.43660360    -0.20600
C3708       C  0.88488561  0.80507749  0.44753545    -0.19200
C3709       C  0.87072960  0.80129469  0.45099479     0.20000
C3710       C  0.86365439  0.79003431  0.44341689     0.02100
C3711       C  0.84933139  0.78668957  0.44730471    -0.13900
C3712       C  0.84242843  0.79407119  0.45836318    -0.11600
C3713       C  0.84948038  0.80506777  0.46586174     0.01700
C3714       C  0.86360567  0.80869925  0.46204830    -0.23800
H3715       H  0.86718929  0.75661236  0.40666116     0.09700
H3716       H  0.85419843  0.76745858  0.42602126     0.13200
H3717       H  0.90375810  0.78367223  0.41485425     0.12000
H3718       H  0.90311090  0.80119432  0.43410845     0.13200
H3719       H  0.89033471  0.81364033  0.45329512     0.12200
H3720       H  0.84313271  0.77841050  0.44206714     0.09300
H3721       H  0.83148418  0.79110937  0.46105981     0.12500
H3722       H  0.86917313  0.81717598  0.46783333     0.14400
C3723       C  0.91741173  0.75745502  0.40745331    -0.01100
C3724       C  0.91446535  0.74946799  0.41986521    -0.09100
C3725       C  0.92500183  0.74758573  0.43043920    -0.18000
C3726       C  0.93881256  0.75384974  0.42892979     0.04400
C3727       C  0.94138103  0.76265209  0.41665118     0.18600
C3728       C  0.93079400  0.76416874  0.40597850    -0.19400
C3729       C  0.95453472  0.76979756  0.41503917    -0.20600
C3730       C  0.96527061  0.76836782  0.42535304    -0.19200
C3731       C  0.96331011  0.75935908  0.43727819     0.20000
C3732       C  0.95015825  0.75173311  0.43911761     0.02100
C3733       C  0.94911702  0.74204665  0.45085189    -0.13900
C3734       C  0.96060976  0.74014405  0.46038342    -0.11600
C3735       C  0.97329299  0.74809003  0.45877293     0.01700
C3736       C  0.97454390  0.75775262  0.44727108    -0.23800
H3737       H  0.90408775  0.74432597  0.42114602     0.09700
H3738       H  0.92201645  0.74123817  0.43968636     0.13200
H3739       H  0.93292511  0.77052963  0.39642047     0.12000
H3740       H  0.95650813  0.77660852  0.40576552     0.13200
H3741       H  0.97529828  0.77413152  0.42384009     0.12200
H3742       H  0.93968935  0.73556135  0.45275352     0.09300
H3743       H  0.95949410  0.73259884  0.46921608     0.12500
H3744       H  0.98446496  0.76375100  0.44589296     0.14400
C3745       C  0.74008917  0.06687266  0.62999650    -0.01100
C3746       C  0.74353343  0.06199644  0.64380905    -0.09100
C3747       C  0.73547865  0.05121510  0.65039960    -0.18000
C3748       C  0.72347539  0.04503991  0.64339448     0.04400
C3749       C  0.72040705  0.04956225  0.62908107     0.18600
C3750       C  0.72873644  0.06037224  0.62250960    -0.19400
C3751       C  0.70875567  0.04361554  0.62161484    -0.20600
C3752       C  0.69994610  0.03339808  0.62813004    -0.19200
C3753       C  0.70251206  0.02894900  0.64230643     0.20000
C3754       C  0.71430504  0.03472277  0.65015576     0.02100
C3755       C  0.71628576  0.03006413  0.66451414    -0.13900
C3756       C  0.70715870  0.01989706  0.67069140    -0.11600
C3757       C  0.69570322  0.01403324  0.66286664     0.01700
C3758       C  0.69336071  0.01872076  0.64869195    -0.23800
H3759       H  0.75230604  0.06688386  0.64973675     0.09700
H3760       H  0.73879212  0.04818868  0.66108800     0.13200
H3761       H  0.72581254  0.06430491  0.61192407     0.12000
H3762       H  0.70636982  0.04697492  0.61069593     0.13200
H3763       H  0.69098643  0.02903116  0.62207402     0.12200
H3764       H  0.72477860  0.03404899  0.67131399     0.09300
H3765       H  0.70917506  0.01655524  0.68168205     0.12500
H3766       H  0.68450725  0.01427772  0.64252707     0.14400
C3767       C  0.79887430  0.14877649  0.54833616    -0.01100
C3768       C  0.78625355  0.15404304  0.55465364    -0.09100
C3769       C  0.77823729  0.14556772  0.56407300    -0.18000
C3770       C  0.78257995  0.13139802  0.56753995     0.04400
C3771       C  0.79523659  0.12595777  0.56089884     0.18600
C3772       C  0.80328544  0.13467464  0.55148509    -0.19400
C3773       C  0.79977610  0.11185502  0.56369358    -0.20600
C3774       C  0.79213214  0.10308531  0.57313856    -0.19200
C3775       C  0.77987419  0.10826887  0.58017924     0.20000
C3776       C  0.77490107  0.12250632  0.57745558     0.02100
C3777       C  0.76269838  0.12738071  0.58511179    -0.13900
C3778       C  0.75607577  0.11869794  0.59537298    -0.11600
C3779       C  0.76114994  0.10482259  0.59818528     0.01700
C3780       C  0.77285264  0.09950089  0.59034744    -0.23800
H3781       H  0.78247605  0.16482323  0.55229880     0.09700
H3782       H  0.76865071  0.15043831  0.56836467     0.13200
H3783       H  0.81292147  0.13040098  0.54649711     0.12000
H3784       H  0.80935149  0.10759431  0.55858748     0.13200
H3785       H  0.79599335  0.09225999  0.57515756     0.12200
H3786       H  0.75824747  0.13799645  0.58379135     0.09300
H3787       H  0.74707379  0.12298391  0.60141634     0.12500
H3788       H  0.77699780  0.08885729  0.59274973     0.14400
C3789       C  0.75148059  0.02247582  0.54155697    -0.01100
C3790       C  0.74131851  0.03356911  0.54135915    -0.09100
C3791       C  0.74095156  0.04383985  0.55235076    -0.18000
C3792       C  0.75059319  0.04309166  0.56412339     0.04400
C3793       C  0.76050598  0.03142860  0.56450358     0.18600
C3794       C  0.76106691  0.02146779  0.55312494    -0.19400
C3795       C  0.76972557  0.02970662  0.57628611    -0.20600
C3796       C  0.76930225  0.03929935  0.58777192    -0.19200
C3797       C  0.75995023  0.05109974  0.58757145     0.20000
C3798       C  0.75064728  0.05335000  0.57561261     0.02100
C3799       C  0.74196505  0.06587344  0.57561733    -0.13900
C3800       C  0.74237545  0.07557961  0.58710302    -0.11600
C3801       C  0.75117611  0.07299373  0.59900806     0.01700
C3802       C  0.75991964  0.06075398  0.59922758    -0.23800
H3803       H  0.73378119  0.03444843  0.53250626     0.09700
H3804       H  0.73285468  0.05208640  0.55144619     0.13200
H3805       H  0.76877780  0.01270949  0.55340302     0.12000
H3806       H  0.77721851  0.02077849  0.57669442     0.13200
H3807       H  0.77647222  0.03757123  0.59680725     0.12200
H3808       H  0.73493014  0.06858645  0.56681007     0.09300
H3809       H  0.73564613  0.08509024  0.58682995     0.12500
H3810       H  0.76686813  0.05893283  0.60842077     0.14400
C3811       C  0.69865124  0.03117108  0.35564757    -0.01100
C3812       C  0.69364423  0.03408093  0.36958846    -0.09100
C3813       C  0.70135204  0.04313511  0.37882160    -0.18000
C3814       C  0.71434580  0.04967572  0.37432659     0.04400
C3815       C  0.71936392  0.04660633  0.36018382     0.18600
C3816       C  0.71158788  0.03741426  0.35110230    -0.19400
C3817       C  0.73203285  0.05288289  0.35504332    -0.20600
C3818       C  0.73966098  0.06253689  0.36347735    -0.19200
C3819       C  0.73487692  0.06603689  0.37730231     0.20000
C3820       C  0.72235575  0.05943730  0.38312992     0.02100
C3821       C  0.71827113  0.06322728  0.39733699    -0.13900
C3822       C  0.72582776  0.07376799  0.40500967    -0.11600
C3823       C  0.73764192  0.08070643  0.39877831     0.01700
C3824       C  0.74231447  0.07652981  0.38512373    -0.23800
H3825       H  0.68372321  0.02931257  0.37342134     0.09700
H3826       H  0.69678727  0.04492367  0.38933499     0.13200
H3827       H  0.71559978  0.03523890  0.34035714     0.12000
H3828       H  0.73593016  0.05052072  0.34430076     0.13200
H3829       H  0.74926210  0.06747975  0.35906045     0.12200
H3830       H  0.70910170  0.05851716  0.40265367     0.09300
H3831       H  0.72197879  0.07700201  0.41552484     0.12500
H3832       H  0.75152991  0.08189310  0.38035490     0.14400
C3833       C  0.75987095  0.11519552  0.43340554    -0.01100
C3834       C  0.75545736  0.12896075  0.43750077    -0.09100
C3835       C  0.76238252  0.13626100  0.44855807    -0.18000
C3836       C  0.77419762  0.13004198  0.45583039     0.04400
C3837       C  0.77851431  0.11590778  0.45180565     0.18600
C3838       C  0.77129457  0.10859519  0.44068556    -0.19400
C3839       C  0.79019558  0.10933272  0.45867895    -0.20600
C3840       C  0.79779416  0.11656937  0.46937820    -0.19200
C3841       C  0.79389875  0.13055744  0.47344929     0.20000
C3842       C  0.78198574  0.13745236  0.46677651     0.02100
C3843       C  0.77844450  0.15155351  0.47125031    -0.13900
C3844       C  0.78635738  0.15850434  0.48186168    -0.11600
C3845       C  0.79811038  0.15175528  0.48838797     0.01700
C3846       C  0.80186073  0.13775274  0.48412890    -0.23800
H3847       H  0.74666139  0.13421630  0.43193781     0.09700
H3848       H  0.75831307  0.14684000  0.45094197     0.13200
H3849       H  0.77498414  0.09806718  0.43728469     0.12000
H3850       H  0.79354474  0.09856330  0.45568337     0.13200
H3851       H  0.80683247  0.11122134  0.47444253     0.12200
H3852       H  0.76963267  0.15759259  0.46679408     0.09300
H3853       H  0.78325603  0.16932991  0.48489950     0.12500
H3854       H  0.81091569  0.13240953  0.48917923     0.14400
C3855       C  0.74898021  0.08385616  0.42988158    -0.01100
C3856       C  0.73910265  0.08406457  0.44120576    -0.09100
C3857       C  0.73901877  0.07307131  0.45150881    -0.18000
C3858       C  0.74909546  0.06164837  0.45087712     0.04400
C3859       C  0.75943886  0.06189162  0.43957622     0.18600
C3860       C  0.75910525  0.07278983  0.42909120    -0.19400
C3861       C  0.77008103  0.05128216  0.43881510    -0.20600
C3862       C  0.77070218  0.04036177  0.44902947    -0.19200
C3863       C  0.76047381  0.03955646  0.46005417     0.20000
C3864       C  0.74937521  0.05005456  0.46104386     0.02100
C3865       C  0.73894268  0.04831421  0.47201603    -0.13900
C3866       C  0.73957216  0.03668418  0.48158206    -0.11600
C3867       C  0.75074913  0.02662461  0.48075439     0.01700
C3868       C  0.76121062  0.02818453  0.47001948    -0.23800
H3869       H  0.73130005  0.09268832  0.44191507     0.09700
H3870       H  0.73107091  0.07389577  0.45991259     0.13200
H3871       H  0.76684592  0.07284314  0.42035961     0.12000
H3872       H  0.77805039  0.05148220  0.43029905     0.13200
H3873       H  0.77914437  0.03236315  0.44818247     0.12200
H3874       H  0.73004035  0.05562120  0.47333213     0.09300
H3875       H  0.73138825  0.03567259  0.48982581     0.12500
H3876       H  0.76978715  0.02031178  0.46922371     0.14400
C3877       C  0.75122128  0.91208461  0.62491714    -0.01100
C3878       C  0.73920433  0.91657125  0.61703959    -0.09100
C3879       C  0.72879648  0.92539585  0.62329654    -0.18000
C3880       C  0.72996578  0.92982935  0.63781628     0.04400
C3881       C  0.74242786  0.92557522  0.64561383     0.18600
C3882       C  0.75288072  0.91684615  0.63911762    -0.19400
C3883       C  0.74421949  0.92973054  0.65997353    -0.20600
C3884       C  0.73380313  0.93792563  0.66685644    -0.19200
C3885       C  0.72131382  0.94210711  0.65956573     0.20000
C3886       C  0.71916239  0.93812360  0.64495112     0.02100
C3887       C  0.70623069  0.94251496  0.63820787    -0.13900
C3888       C  0.69603830  0.95074540  0.64559381    -0.11600
C3889       C  0.69835130  0.95484808  0.65991287     0.01700
C3890       C  0.71098134  0.95033846  0.66684244    -0.23800
H3891       H  0.73739899  0.91268426  0.60621533     0.09700
H3892       H  0.71979097  0.92824598  0.61658298     0.13200
H3893       H  0.76215849  0.91336296  0.64527971     0.12000
H3894       H  0.75370074  0.92653240  0.66596063     0.13200
H3895       H  0.73549442  0.94095022  0.67800072     0.12200
H3896       H  0.70367918  0.93982476  0.62721866     0.09300
H3897       H  0.68638799  0.95407158  0.63998005     0.12500
H3898       H  0.71292089  0.95340260  0.67793951     0.14400
C3899       C  0.77694785  0.87944523  0.59112529    -0.01100
C3900       C  0.77288447  0.86532854  0.58790530    -0.09100
C3901       C  0.77873402  0.85817786  0.57611960    -0.18000
C3902       C  0.78913016  0.86490988  0.56727355     0.04400
C3903       C  0.79307848  0.87936744  0.57051027     0.18600
C3904       C  0.78687684  0.88652988  0.58230014    -0.19400
C3905       C  0.80343414  0.88645048  0.56217528    -0.20600
C3906       C  0.81019540  0.87938809  0.55084639    -0.19200
C3907       C  0.80669854  0.86510239  0.54752615     0.20000
C3908       C  0.79596714  0.85771298  0.55555680     0.02100
C3909       C  0.79267189  0.84337556  0.55160599    -0.13900
C3910       C  0.79985638  0.83662649  0.54031416    -0.11600
C3911       C  0.81059723  0.84384662  0.53261046     0.01700
C3912       C  0.81393316  0.85811957  0.53624161    -0.23800
H3913       H  0.76516833  0.85974443  0.59464372     0.09700
H3914       H  0.77507452  0.84730608  0.57443441     0.13200
H3915       H  0.79016983  0.89742014  0.58493621     0.12000
H3916       H  0.80647017  0.89746736  0.56455942     0.13200
H3917       H  0.81829672  0.88511085  0.54470025     0.12200
H3918       H  0.78459817  0.83703888  0.55699129     0.09300
H3919       H  0.79702824  0.82561907  0.53767563     0.12500
H3920       H  0.82210415  0.86386603  0.53020023     0.14400
C3921       C  0.76315064  0.90953294  0.59376598    -0.01100
C3922       C  0.75521670  0.90594623  0.58148965    -0.09100
C3923       C  0.75321761  0.91599329  0.57043516    -0.18000
C3924       C  0.75940218  0.92991411  0.57125116     0.04400
C3925       C  0.76781926  0.93326180  0.58360968     0.18600
C3926       C  0.76936575  0.92319861  0.59479926    -0.19400
C3927       C  0.77479334  0.94657094  0.58466685    -0.20600
C3928       C  0.77379584  0.95660223  0.57360971    -0.19200
C3929       C  0.76541636  0.95377478  0.56142220     0.20000
C3930       C  0.75777358  0.94055253  0.56019779     0.02100
C3931       C  0.74873234  0.93869240  0.54805749    -0.13900
C3932       C  0.74755397  0.94943290  0.53752091    -0.11600
C3933       C  0.75561836  0.96212046  0.53854913     0.01700
C3934       C  0.76454157  0.96420072  0.55049604    -0.23800
H3935       H  0.75041137  0.89535940  0.58057503     0.09700
H3936       H  0.74701206  0.91248357  0.56128569     0.13200
H3937       H  0.77565627  0.92584200  0.60426574     0.12000
H3938       H  0.78125979  0.94915790  0.59402506     0.13200
H3939       H  0.77951585  0.96672239  0.57466680     0.12200
H3940       H  0.74225710  0.92917914  0.54655193     0.09300
H3941       H  0.74048977  0.94772302  0.52840406     0.12500
H3942       H  0.77055417  0.97417253  0.55145510     0.14400
C3943       C  0.73949355  0.91932241  0.38689769    -0.01100
C3944       C  0.74414091  0.92384611  0.37333691    -0.09100
C3945       C  0.73677859  0.93454007  0.36587833    -0.18000
C3946       C  0.72422873  0.94087635  0.37168582     0.04400
C3947       C  0.71974600  0.93646490  0.38566251     0.18600
C3948       C  0.72748985  0.92585839  0.39319738    -0.19400
C3949       C  0.70733997  0.94235890  0.39182972    -0.20600
C3950       C  0.69918013  0.95245078  0.38435702    -0.19200
C3951       C  0.70323694  0.95691970  0.37054219     0.20000
C3952       C  0.71585646  0.95122923  0.36402723     0.02100
C3953       C  0.71948601  0.95606279  0.35006338    -0.13900
C3954       C  0.71107023  0.96621304  0.34297142    -0.11600
C3955       C  0.69871184  0.97190568  0.34944222     0.01700
C3956       C  0.69478207  0.96711600  0.36321095    -0.23800
H3957       H  0.75341187  0.91884180  0.36834430     0.09700
H3958       H  0.74104026  0.93732961  0.35546885     0.13200
H3959       H  0.72376021  0.92216503  0.40362850     0.12000
H3960       H  0.70384675  0.93904082  0.40245971     0.13200
H3961       H  0.68959398  0.95675670  0.38940470     0.12200
H3962       H  0.72879372  0.95229803  0.34429656     0.09300
H3963       H  0.71436613  0.96968249  0.33233220     0.12500
H3964       H  0.68527683  0.97150558  0.36834845     0.14400
C3965       C  0.76372922  0.88566681  0.42093440    -0.01100
C3966       C  0.77515283  0.89312976  0.42730294    -0.09100
C3967       C  0.78360775  0.88656414  0.43787200    -0.18000
C3968       C  0.78086109  0.87223787  0.44231206     0.04400
C3969       C  0.76883238  0.86501908  0.43616820     0.18600
C3970       C  0.76050283  0.87173120  0.42556722    -0.19400
C3971       C  0.76532764  0.85100564  0.44038816    -0.20600
C3972       C  0.77364288  0.84384366  0.45048026    -0.19200
C3973       C  0.78578255  0.85044714  0.45642512     0.20000
C3974       C  0.78965683  0.86471224  0.45243931     0.02100
C3975       C  0.80230669  0.87062580  0.45854791    -0.13900
C3976       C  0.81068568  0.86266616  0.46820937    -0.11600
C3977       C  0.80667015  0.84866278  0.47215509     0.01700
C3978       C  0.79416645  0.84269860  0.46622840    -0.23800
H3979       H  0.77794153  0.90386268  0.42369375     0.09700
H3980       H  0.79231692  0.89288163  0.44219622     0.13200
H3981       H  0.75160128  0.86598428  0.42066159     0.12000
H3982       H  0.75612939  0.84550483  0.43578334     0.13200
H3983       H  0.77067291  0.83296181  0.45349981     0.12200
H3984       H  0.80609908  0.88128047  0.45594133     0.09300
H3985       H  0.82033414  0.86750694  0.47260211     0.12500
H3986       H  0.79098957  0.83182809  0.46908966     0.14400
C3987       C  0.75113934  0.91618481  0.41808996    -0.01100
C3988       C  0.75885030  0.92897385  0.41623694    -0.09100
C3989       C  0.75992187  0.93895760  0.42746448    -0.18000
C3990       C  0.75304432  0.93647017  0.44084677     0.04400
C3991       C  0.74463904  0.92374371  0.44231885     0.18600
C3992       C  0.74399117  0.91366407  0.43108562    -0.19400
C3993       C  0.73690016  0.92115663  0.45497529    -0.20600
C3994       C  0.73713229  0.93105869  0.46618247    -0.19200
C3995       C  0.74554750  0.94351819  0.46522913     0.20000
C3996       C  0.75398928  0.94621093  0.45273716     0.02100
C3997       C  0.76312575  0.95841743  0.45281675    -0.13900
C3998       C  0.76344855  0.96778326  0.46461438    -0.11600
C3999       C  0.75446454  0.96546799  0.47647992     0.01700
C4000       C  0.74559870  0.95329585  0.47675404    -0.23800
H4001       H  0.76437119  0.93102659  0.40617584     0.09700
H4002       H  0.76605351  0.94857787  0.42531818     0.13200
H4003       H  0.73789579  0.90378792  0.43237511     0.12000
H4004       H  0.73043477  0.91150668  0.45612638     0.13200
H4005       H  0.73080670  0.92887234  0.47574128     0.12200
H4006       H  0.77026942  0.96088369  0.44401055     0.09300
H4007       H  0.77047407  0.97709249  0.46430410     0.12500
H4008       H  0.73886240  0.95133522  0.48609055     0.14400
loop_ 
_geom_bond_atom_site_label_1 
_geom_bond_atom_site_label_2 
_geom_bond_distance 
_geom_bond_site_symmetry_2 
_ccdc_geom_bond_type 
N1            C5   1.354       .  A
N1            C2   1.354       .  A
N1         C3987   1.438       .  S
C2            C3   1.383       .  A
C2         C3943   1.472       .  S
C3            C4   1.374       .  A
C3            H6   1.082       .  S
C4            C5   1.382       .  A
C4            H7   1.082       .  S
C5         C3965   1.475       .  S
N8           C12   1.354       .  A
N8            C9   1.357       .  A
N8         C3921   1.440       .  S
C9           C10   1.384       .  A
C9         C3877   1.480       .  S
C10          C11   1.374       .  A
C10          H13   1.082       .  S
C11          C12   1.382       .  A
C11          H14   1.082       .  S
C12        C3899   1.473       .  S
N15          C19   1.354       .  A
N15          C16   1.353       .  A
N15        C3855   1.436       .  S
C16          C17   1.382       .  A
C16        C3823   1.473       .  S
C17          C18   1.373       .  A
C17          H20   1.082       .  S
C18          C19   1.383       .  A
C18          H21   1.082       .  S
C19        C3833   1.473       .  S
N22          C26   1.355       .  A
N22          C23   1.356       .  A
N22        C3801   1.437       .  S
C23          C24   1.383       .  A
C23        C3745   1.477       .  S
C24          C25   1.372       .  A
C24          H27   1.082       .  S
C25          C26   1.382       .  A
C25          H28   1.082       .  S
C26        C3779   1.475       .  S
O29         Ni37   1.919   1_545  S
O29          C39   1.281       .  A
O30         Ni37   1.921       .  S
O30          C40   1.281       .  A
O31         Ni37   1.919   1_545  S
O31          C41   1.282       .  A
O32         Ni37   1.919       .  S
O32          C42   1.282       .  A
O33         Ni38   1.924       .  S
O33          C42   1.282       .  A
O34         Ni38   1.923   1_545  S
O34          C41   1.282       .  A
O35         Ni38   1.917       .  S
O35          C40   1.281       .  A
O36         Ni38   1.918   1_545  S
O36          C39   1.281       .  A
Ni37        Ni38   2.390       .  S
C39        C3789   1.473       .  S
C40        C3999   1.474       .  S
C41        C3867   1.479       .  S
C42        C3933   1.476       .  S
N43          C47   1.354       .  A
N43          C44   1.354       .  A
N43        C3723   1.439       .  S
C44          C45   1.384       .  A
C44        C3679   1.476       .  S
C45          C46   1.373       .  A
C45          H48   1.082       .  S
C46          C47   1.382       .  A
C46          H49   1.082       .  S
C47        C3701   1.470       .  S
N50          C54   1.355       .  A
N50          C51   1.354       .  A
N50        C3657   1.435       .  S
C51          C52   1.382       .  A
C51        C3613   1.477       .  S
C52          C53   1.377       .  A
C52          H55   1.082       .  S
C53          C54   1.384       .  A
C53          H56   1.082       .  S
C54        C3635   1.482       .  S
N57          C61   1.352       .  A
N57          C58   1.353       .  A
N57        C3603   1.435       .  S
C58          C59   1.383       .  A
C58        C3547   1.475       .  S
C59          C60   1.375       .  A
C59          H62   1.082       .  S
C60          C61   1.383       .  A
C60          H63   1.082       .  S
C61        C3569   1.472       .  S
N64          C68   1.355       .  A
N64          C65   1.354       .  A
N64        C3525   1.438       .  S
C65          C66   1.381       .  A
C65        C3481   1.472       .  S
C66          C67   1.374       .  A
C66          H69   1.082       .  S
C67          C68   1.384       .  A
C67          H70   1.082       .  S
C68        C3503   1.476       .  S
O71         Ni79   1.917       .  S
O71          C81   1.281       .  A
O72         Ni79   1.917   1_655  S
O72          C82   1.281       .  A
O73         Ni79   1.919   1_655  S
O73          C83   1.282       .  A
O74         Ni79   1.919       .  S
O74          C84   1.282       .  A
O75         Ni80   1.916       .  S
O75          C84   1.281       .  A
O76         Ni80   1.914   1_655  S
O76          C83   1.281       .  A
O77         Ni80   1.924   1_655  S
O77          C82   1.282       .  A
O78         Ni80   1.922       .  S
O78          C81   1.282       .  A
Ni79        Ni80   2.390       .  S
C81        C3537   1.476       .  S
C82        C3735   1.475       .  S
C83        C3669   1.477       .  S
C84        C3591   1.473       .  S
N85          C89   1.354       .  A
N85          C86   1.351       .  A
N85        C3459   1.438       .  S
C86          C87   1.382       .  A
C86        C3415   1.468       .  S
C87          C88   1.374       .  A
C87          H90   1.082       .  S
C88          C89   1.384       .  A
C88          H91   1.082       .  S
C89        C3449   1.471       .  S
N92          C96   1.354       .  A
N92          C93   1.352       .  A
N92        C3393   1.438       .  S
C93          C94   1.382       .  A
C93        C3361   1.470       .  S
C94          C95   1.374       .  A
C94          H97   1.082       .  S
C95          C96   1.383       .  A
C95          H98   1.082       .  S
C96        C3371   1.470       .  S
N99         C103   1.357       .  A
N99         C100   1.357       .  A
N99        C3327   1.438       .  S
C100        C101   1.383       .  A
C100       C3305   1.481       .  S
C101        C102   1.375       .  A
C101        H104   1.082       .  S
C102        C103   1.384       .  A
C102        H105   1.082       .  S
C103       C3283   1.482       .  S
N106        C110   1.355       .  A
N106        C107   1.355       .  A
N106       C3261   1.439       .  S
C107        C108   1.382       .  A
C107       C3251   1.475       .  S
C108        C109   1.375       .  A
C108        H111   1.082       .  S
C109        C110   1.385       .  A
C109        H112   1.082       .  S
C110       C3217   1.478       .  S
O113       Ni121   1.918       .  S
O113        C123   1.280       .  A
O114       Ni121   1.918   1_565  S
O114        C124   1.281       .  A
O115       Ni121   1.918   1_565  S
O115        C125   1.282       .  A
O116       Ni121   1.919       .  S
O116        C126   1.281       .  A
O117       Ni122   1.923       .  S
O117        C126   1.282       .  A
O118       Ni122   1.922   1_565  S
O118        C125   1.282       .  A
O119       Ni122   1.918   1_565  S
O119        C124   1.281       .  A
O120       Ni122   1.918       .  S
O120        C123   1.281       .  A
Ni121      Ni122   2.391       .  S
C123       C3339   1.468       .  S
C124       C3405   1.473       .  S
C125       C3471   1.477       .  S
C126       C3273   1.474       .  S
N127        C131   1.355       .  A
N127        C128   1.353       .  A
N127       C3195   1.438       .  S
C128        C129   1.382       .  A
C128       C3173   1.474       .  S
C129        C130   1.375       .  A
C129        H132   1.082       .  S
C130        C131   1.384       .  A
C130        H133   1.082       .  S
C131       C3151   1.476       .  S
N134        C138   1.355       .  A
N134        C135   1.355       .  A
N134       C3129   1.434       .  S
C135        C136   1.383       .  A
C135       C3107   1.479       .  S
C136        C137   1.377       .  A
C136        H139   1.082       .  S
C137        C138   1.383       .  A
C137        H140   1.082       .  S
C138       C3085   1.480       .  S
N141        C145   1.354       .  A
N141        C142   1.355       .  A
N141       C3063   1.437       .  S
C142        C143   1.384       .  A
C142       C3041   1.478       .  S
C143        C144   1.374       .  A
C143        H146   1.082       .  S
C144        C145   1.382       .  A
C144        H147   1.082       .  S
C145       C3031   1.475       .  S
N148        C152   1.351       .  A
N148        C149   1.352       .  A
N148       C2997   1.436       .  S
C149        C150   1.383       .  A
C149       C2975   1.470       .  S
C150        C151   1.374       .  A
C150        H153   1.082       .  S
C151        C152   1.382       .  A
C151        H154   1.082       .  S
C152       C2953   1.468       .  S
O155       Ni163   1.918       .  S
O155        C165   1.281       .  A
O156       Ni163   1.918   1_565  S
O156        C166   1.282       .  A
O157       Ni163   1.919       .  S
O157        C167   1.282       .  A
O158       Ni163   1.920   1_565  S
O158        C168   1.282       .  A
O159       Ni164   1.922   1_565  S
O159        C168   1.282       .  A
O160       Ni164   1.923       .  S
O160        C167   1.283       .  A
O161       Ni164   1.916   1_565  S
O161        C166   1.281       .  A
O162       Ni164   1.914       .  S
O162        C165   1.280       .  A
Ni163      Ni164   2.390       .  S
C165       C3075   1.469       .  S
C166       C3141   1.476       .  S
C167       C3009   1.480       .  S
C168       C3207   1.479       .  S
N169        C173   1.356       .  A
N169        C170   1.355       .  A
N169       C2931   1.438       .  S
C170        C171   1.383       .  A
C170       C2909   1.476       .  S
C171        C172   1.374       .  A
C171        H174   1.082       .  S
C172        C173   1.383       .  A
C172        H175   1.082       .  S
C173       C2887   1.477       .  S
N176        C180   1.353       .  A
N176        C177   1.352       .  A
N176       C2865   1.438       .  S
C177        C178   1.383       .  A
C177       C2843   1.471       .  S
C178        C179   1.375       .  A
C178        H181   1.082       .  S
C179        C180   1.383       .  A
C179        H182   1.082       .  S
C180       C2821   1.472       .  S
N183        C187   1.351       .  A
N183        C184   1.350       .  A
N183       C2799   1.433       .  S
C184        C185   1.382       .  A
C184       C2789   1.472       .  S
C185        C186   1.378       .  A
C185        H188   1.082       .  S
C186        C187   1.383       .  A
C186        H189   1.082       .  S
C187       C2755   1.472       .  S
N190        C194   1.355       .  A
N190        C191   1.355       .  A
N190       C2733   1.438       .  S
C191        C192   1.384       .  A
C191       C2723   1.474       .  S
C192        C193   1.373       .  A
C192        H195   1.082       .  S
C193        C194   1.382       .  A
C193        H196   1.082       .  S
C194       C2701   1.474       .  S
O197       Ni205   1.915       .  S
O197        C207   1.280       .  A
O198       Ni205   1.915   1_556  S
O198        C208   1.281       .  A
O199       Ni205   1.917   1_556  S
O199        C209   1.281       .  A
O200       Ni205   1.916       .  S
O200        C210   1.281       .  A
O201       Ni206   1.928       .  S
O201        C210   1.283       .  A
O202       Ni206   1.926   1_556  S
O202        C209   1.282       .  A
O203       Ni206   1.920   1_556  S
O203        C208   1.281       .  A
O204       Ni206   1.917       .  S
O204        C207   1.282       .  A
Ni205      Ni206   2.390       .  S
C207       C2811   1.473       .  S
C208       C2877   1.471       .  S
C209       C2943   1.477       .  S
C210       C2745   1.480       .  S
N211        C215   1.354       .  A
N211        C212   1.354       .  A
N211       C2667   1.437       .  S
C212        C213   1.383       .  A
C212       C2645   1.474       .  S
C213        C214   1.376       .  A
C213        H216   1.082       .  S
C214        C215   1.383       .  A
C214        H217   1.082       .  S
C215       C2623   1.475       .  S
N218        C222   1.356       .  A
N218        C219   1.354       .  A
N218       C2613   1.438       .  S
C219        C220   1.381       .  A
C219       C2579   1.472       .  S
C220        C221   1.374       .  A
C220        H223   1.082       .  S
C221        C222   1.385       .  A
C221        H224   1.082       .  S
C222       C2569   1.478       .  S
N225        C229   1.356       .  A
N225        C226   1.355       .  A
N225       C2535   1.440       .  S
C226        C227   1.382       .  A
C226       C2525   1.473       .  S
C227        C228   1.375       .  A
C227        H230   1.082       .  S
C228        C229   1.383       .  A
C228        H231   1.082       .  S
C229       C2491   1.476       .  S
N232        C236   1.355       .  A
N232        C233   1.355       .  A
N232       C2481   1.434       .  S
C233        C234   1.384       .  A
C233       C2459   1.480       .  S
C234        C235   1.376       .  A
C234        H237   1.082       .  S
C235        C236   1.382       .  A
C235        H238   1.082       .  S
C236       C2425   1.478       .  S
O239       Ni247   1.917   1_545  S
O239        C249   1.281       .  A
O240       Ni247   1.917       .  S
O240        C250   1.281       .  A
O241       Ni247   1.915       .  S
O241        C251   1.281   1_565  A
O242       Ni247   1.917       .  S
O242        C252   1.281       .  A
O243       Ni248   1.924       .  S
O243        C252   1.282       .  A
O244       Ni248   1.922   1_545  S
O244        C251   1.282       .  A
O245       Ni248   1.923       .  S
O245        C250   1.282       .  A
O246       Ni248   1.924   1_545  S
O246        C249   1.282       .  A
Ni247      Ni248   2.390       .  S
C249       C2547   1.474       .  S
C250       C2601   1.475       .  S
C251       C2469   1.475       .  S
C252       C2679   1.475       .  S
N253        C257   1.353       .  A
N253        C254   1.355       .  A
N253       C2403   1.436       .  S
C254        C255   1.385       .  A
C254       C2359   1.479       .  S
C255        C256   1.376       .  A
C255        H258   1.082       .  S
C256        C257   1.382       .  A
C256        H259   1.082       .  S
C257       C2381   1.473       .  S
N260        C264   1.356       .  A
N260        C261   1.354       .  A
N260       C2337   1.435       .  S
C261        C262   1.383       .  A
C261       C2293   1.477       .  S
C262        C263   1.374       .  A
C262        H265   1.082       .  S
C263        C264   1.382       .  A
C263        H266   1.082       .  S
C264       C2315   1.478       .  S
N267        C271   1.353       .  A
N267        C268   1.349       .  A
N267       C2271   1.437       .  S
C268        C269   1.381       .  A
C268       C2261   1.467       .  S
C269        C270   1.376       .  A
C269        H272   1.082       .  S
C270        C271   1.384       .  A
C270        H273   1.082       .  S
C271       C2227   1.472       .  S
N274        C278   1.355       .  A
N274        C275   1.356       .  A
N274       C2205   1.439       .  S
C275        C276   1.383       .  A
C275       C2183   1.477       .  S
C276        C277   1.374       .  A
C276        H279   1.082       .  S
C277        C278   1.382       .  A
C277        H280   1.082       .  S
C278       C2161   1.474       .  S
O281       Ni289   1.919   1_554  S
O281        C291   1.282       .  A
O282       Ni289   1.917       .  S
O282        C292   1.280       .  A
O283       Ni289   1.916   1_554  S
O283        C293   1.280       .  A
O284       Ni289   1.916       .  S
O284        C294   1.281       .  A
O285       Ni290   1.925       .  S
O285        C294   1.283       .  A
O286       Ni290   1.923   1_554  S
O286        C293   1.282       .  A
O287       Ni290   1.913       .  S
O287        C292   1.280       .  A
O288       Ni290   1.916   1_554  S
O288        C291   1.280       .  A
Ni289      Ni290   2.391       .  S
C291       C2283   1.472       .  S
C292       C2349   1.465       .  S
C293       C2217   1.472       .  S
C294       C2415   1.478       .  S
N295        C299   1.354       .  A
N295        C296   1.354       .  A
N295       C2139   1.439       .  S
C296        C297   1.384       .  A
C296       C2117   1.474       .  S
C297        C298   1.373       .  A
C297        H300   1.082       .  S
C298        C299   1.382       .  A
C298        H301   1.082       .  S
C299       C2095   1.473       .  S
N302        C306   1.354       .  A
N302        C303   1.356       .  A
N302       C2073   1.438       .  S
C303        C304   1.384       .  A
C303       C2051   1.477       .  S
C304        C305   1.373       .  A
C304        H307   1.082       .  S
C305        C306   1.382       .  A
C305        H308   1.082       .  S
C306       C2041   1.475       .  S
N309        C313   1.357       .  A
N309        C310   1.357       .  A
N309       C2019   1.440       .  S
C310        C311   1.383       .  A
C310       C1985   1.476       .  S
C311        C312   1.373       .  A
C311        H314   1.082       .  S
C312        C313   1.383       .  A
C312        H315   1.082       .  S
C313       C1963   1.477       .  S
N316        C320   1.357       .  A
N316        C317   1.356       .  A
N316       C1941   1.438       .  S
C317        C318   1.382       .  A
C317       C1897   1.477       .  S
C318        C319   1.374       .  A
C318        H321   1.082       .  S
C319        C320   1.384       .  A
C319        H322   1.082       .  S
C320       C1919   1.481       .  S
O323       Ni331   1.926   1_556  S
O323        C333   1.283       .  A
O324       Ni331   1.926       .  S
O324        C334   1.283       .  A
O325       Ni331   1.926   1_556  S
O325        C335   1.283       .  A
O326       Ni331   1.923       .  S
O326        C336   1.282       .  A
O327       Ni332   1.922       .  S
O327        C336   1.282       .  A
O328       Ni332   1.921   1_556  S
O328        C335   1.282       .  A
O329       Ni332   1.920       .  S
O329        C334   1.281       .  A
O330       Ni332   1.918   1_556  S
O330        C333   1.281       .  A
Ni331      Ni332   2.388       .  S
C333       C2085   1.480       .  S
C334       C2007   1.479       .  S
C335       C2151   1.483       .  S
C336       C1953   1.478       .  S
N337        C341   1.353       .  A
N337        C338   1.353       .  A
N337       C1875   1.437       .  S
C338        C339   1.382       .  A
C338       C1853   1.470       .  S
C339        C340   1.374       .  A
C339        H342   1.082       .  S
C340        C341   1.383       .  A
C340        H343   1.082       .  S
C341       C1843   1.472       .  S
N344        C348   1.355       .  A
N344        C345   1.356       .  A
N344       C1809   1.437       .  S
C345        C346   1.383       .  A
C345       C1765   1.479       .  S
C346        C347   1.376       .  A
C346        H349   1.082       .  S
C347        C348   1.382       .  A
C347        H350   1.082       .  S
C348       C1799   1.478       .  S
N351        C355   1.354       .  A
N351        C352   1.354       .  A
N351       C1743   1.436       .  S
C352        C353   1.382       .  A
C352       C1721   1.475       .  S
C353        C354   1.375       .  A
C353        H356   1.082       .  S
C354        C355   1.383       .  A
C354        H357   1.082       .  S
C355       C1699   1.474       .  S
N358        C362   1.352       .  A
N358        C359   1.353       .  A
N358       C1689   1.436       .  S
C359        C360   1.384       .  A
C359       C1633   1.473       .  S
C360        C361   1.376       .  A
C360        H363   1.082       .  S
C361        C362   1.381       .  A
C361        H364   1.082       .  S
C362       C1655   1.469       .  S
O365       Ni373   1.917       .  S
O365        C375   1.281       .  A
O366       Ni373   1.917       .  S
O366        C376   1.281   1_455  A
O367       Ni373   1.922       .  S
O367        C377   1.282       .  A
O368       Ni373   1.921   1_655  S
O368        C378   1.282       .  A
O369       Ni374   1.917       .  S
O369        C378   1.281   1_455  A
O370       Ni374   1.917       .  S
O370        C377   1.281       .  A
O371       Ni374   1.922       .  S
O371        C376   1.282   1_455  A
O372       Ni374   1.921       .  S
O372        C375   1.282       .  A
Ni373      Ni374   2.390       .  S
C375       C1677   1.473       .  S
C376       C1887   1.477       .  S
C377       C1755   1.476       .  S
C378       C1821   1.475       .  S
N379        C383   1.357       .  A
N379        C380   1.357       .  A
N379       C1611   1.439       .  S
C380        C381   1.384       .  A
C380       C1589   1.480       .  S
C381        C382   1.374       .  A
C381        H384   1.082       .  S
C382        C383   1.382       .  A
C382        H385   1.082       .  S
C383       C1567   1.479       .  S
N386        C390   1.354       .  A
N386        C387   1.356       .  A
N386       C1557   1.438       .  S
C387        C388   1.384       .  A
C387       C1523   1.475       .  S
C388        C389   1.373       .  A
C388        H391   1.082       .  S
C389        C390   1.381       .  A
C389        H392   1.082       .  S
C390       C1501   1.472       .  S
N393        C397   1.355       .  A
N393        C394   1.353       .  A
N393       C1491   1.440       .  S
C394        C395   1.383       .  A
C394       C1457   1.472       .  S
C395        C396   1.376       .  A
C395        H398   1.082       .  S
C396        C397   1.383       .  A
C396        H399   1.082       .  S
C397       C1435   1.475       .  S
N400        C404   1.351       .  A
N400        C401   1.352       .  A
N400       C1413   1.439       .  S
C401        C402   1.383       .  A
C401       C1391   1.468       .  S
C402        C403   1.373       .  A
C402        H405   1.082       .  S
C403        C404   1.382       .  A
C403        H406   1.082       .  S
C404       C1369   1.465       .  S
O407       Ni415   1.920       .  S
O407        C417   1.281       .  A
O408       Ni415   1.920   1_554  S
O408        C418   1.282       .  A
O409       Ni415   1.921   1_554  S
O409        C419   1.282       .  A
O410       Ni415   1.919       .  S
O410        C420   1.281       .  A
O411       Ni416   1.920       .  S
O411        C420   1.282       .  A
O412       Ni416   1.923   1_554  S
O412        C419   1.282       .  A
O413       Ni416   1.920   1_554  S
O413        C418   1.282       .  A
O414       Ni416   1.919       .  S
O414        C417   1.281       .  A
Ni415      Ni416   2.390       .  S
C417       C1623   1.472       .  S
C418       C1425   1.476       .  S
C419       C1479   1.478       .  S
C420       C1545   1.473       .  S
N421        C425   1.354       .  A
N421        C422   1.354       .  A
N421       C1347   1.440       .  S
C422        C423   1.382       .  A
C422       C1303   1.471       .  S
C423        C424   1.374       .  A
C423        H426   1.082       .  S
C424        C425   1.383       .  A
C424        H427   1.082       .  S
C425       C1325   1.471       .  S
N428        C432   1.355       .  A
N428        C429   1.354       .  A
N428       C1281   1.436       .  S
C429        C430   1.383       .  A
C429       C1237   1.477       .  S
C430        C431   1.375       .  A
C430        H433   1.082       .  S
C431        C432   1.383       .  A
C431        H434   1.082       .  S
C432       C1259   1.477       .  S
N435        C439   1.353       .  A
N435        C436   1.354       .  A
N435       C1227   1.436       .  S
C436        C437   1.383       .  A
C436       C1171   1.474       .  S
C437        C438   1.375       .  A
C437        H440   1.082       .  S
C438        C439   1.382       .  A
C438        H441   1.082       .  S
C439       C1193   1.472       .  S
N442        C446   1.355       .  A
N442        C443   1.356       .  A
N442       C1149   1.437       .  S
C443        C444   1.383       .  A
C443       C1117   1.478       .  S
C444        C445   1.374       .  A
C444        H447   1.082       .  S
C445        C446   1.383       .  A
C445        H448   1.082       .  S
C446       C1139   1.478       .  S
O449       Ni457   1.918   1_455  S
O449        C459   1.282       .  A
O450       Ni457   1.915       .  S
O450        C460   1.280       .  A
O451       Ni457   1.919       .  S
O451        C461   1.281       .  A
O452       Ni457   1.919   1_455  S
O452        C462   1.282       .  A
O453       Ni458   1.920   1_455  S
O453        C462   1.282       .  A
O454       Ni458   1.919       .  S
O454        C461   1.281       .  A
O455       Ni458   1.920       .  S
O455        C460   1.282       .  A
O456       Ni458   1.922       .  S
O456        C459   1.282   1_655  A
Ni457      Ni458   2.390       .  S
C459       C1215   1.479       .  S
C460       C1293   1.472       .  S
C461       C1359   1.470       .  S
C462       C1161   1.478       .  S
N463        C467   1.355       .  A
N463        C464   1.352       .  A
N463       C1083   1.440       .  S
C464        C465   1.379       .  A
C464       C1039   1.465       .  S
C465        C466   1.375       .  A
C465        H468   1.082       .  S
C466        C467   1.385       .  A
C466        H469   1.082       .  S
C467       C1061   1.476       .  S
N470        C474   1.352       .  A
N470        C471   1.352       .  A
N470       C1017   1.437       .  S
C471        C472   1.382       .  A
C471        C973   1.471       .  S
C472        C473   1.378       .  A
C472        H475   1.082       .  S
C473        C474   1.383       .  A
C473        H476   1.082       .  S
C474        C995   1.472       .  S
N477        C481   1.353       .  A
N477        C478   1.353       .  A
N477        C951   1.437       .  S
C478        C479   1.382       .  A
C478        C907   1.471       .  S
C479        C480   1.374       .  A
C479        H482   1.082       .  S
C480        C481   1.383       .  A
C480        H483   1.082       .  S
C481        C929   1.472       .  S
N484        C488   1.356       .  A
N484        C485   1.356       .  A
N484        C885   1.439       .  S
C485        C486   1.383       .  A
C485        C853   1.479       .  S
C486        C487   1.373       .  A
C486        H489   1.082       .  S
C487        C488   1.383       .  A
C487        H490   1.082       .  S
C488        C875   1.476       .  S
O491       Ni499   1.918   1_455  S
O491        C501   1.282       .  A
O492       Ni499   1.919       .  S
O492        C502   1.282       .  A
O493       Ni499   1.921       .  S
O493        C503   1.282       .  A
O494       Ni499   1.917   1_455  S
O494        C504   1.281       .  A
O495       Ni500   1.924   1_455  S
O495        C504   1.282       .  A
O496       Ni500   1.924       .  S
O496        C503   1.282       .  A
O497       Ni500   1.926       .  S
O497        C502   1.283       .  A
O498       Ni500   1.925   1_455  S
O498        C501   1.283       .  A
Ni499      Ni500   2.388       .  S
C501        C963   1.483       .  S
C502       C1029   1.481       .  S
C503       C1095   1.478       .  S
C504        C897   1.474       .  S
O505       Ni513   1.916       .  S
O505        C515   1.282       .  A
O506       Ni513   1.914       .  S
O506        C516   1.281       .  A
O507       Ni513   1.907       .  S
O507        C517   1.280       .  A
O508       Ni513   1.906       .  S
O508        C518   1.280       .  A
O509       Ni514   1.921       .  S
O509        C518   1.283       .  A
O510       Ni514   1.918       .  S
O510        C517   1.282       .  A
O511       Ni514   1.911       .  S
O511        C516   1.281       .  A
O512       Ni514   1.914       .  S
O512        C515   1.281       .  A
Ni513      Ni514   2.388       .  S
C515       C1183   1.478   1_655  S
C516       C1051   1.476       .  S
C517       C1315   1.477       .  S
C518        C919   1.479   1_655  S
O519       Ni527   1.916       .  S
O519        C529   1.281       .  A
O520       Ni527   1.916       .  S
O520        C530   1.282       .  A
O521       Ni527   1.921       .  S
O521        C531   1.282       .  A
O522       Ni527   1.923       .  S
O522        C532   1.283       .  A
O523       Ni528   1.907       .  S
O523        C532   1.280       .  A
O524       Ni528   1.909       .  S
O524        C531   1.281       .  A
O525       Ni528   1.911       .  S
O525        C530   1.280       .  A
O526       Ni528   1.908       .  S
O526        C529   1.281       .  A
Ni527      Ni528   2.387       .  S
C529       C3845   1.476       .  S
C530       C1007   1.478       .  S
C531       C3767   1.480       .  S
C532       C1073   1.480       .  S
O533       Ni541   1.918       .  S
O533        C543   1.282       .  A
O534       Ni541   1.919       .  S
O534        C544   1.282       .  A
O535       Ni541   1.901       .  S
O535        C545   1.278       .  A
O536       Ni541   1.903       .  S
O536        C546   1.279       .  A
O537       Ni542   1.923       .  S
O537        C546   1.283       .  A
O538       Ni542   1.922       .  S
O538        C545   1.283       .  A
O539       Ni542   1.910       .  S
O539        C544   1.280       .  A
O540       Ni542   1.912       .  S
O540        C543   1.280       .  A
Ni541      Ni542   2.388       .  S
C543       C3317   1.479       .  S
C544        C863   1.476       .  S
C545       C3239   1.476       .  S
C546        C941   1.477       .  S
O547       Ni555   1.912       .  S
O547        C557   1.281       .  A
O548       Ni555   1.912       .  S
O548        C558   1.281       .  A
O549       Ni555   1.912       .  S
O549        C559   1.281       .  A
O550       Ni555   1.911       .  S
O550        C560   1.281       .  A
O551       Ni556   1.914       .  S
O551        C560   1.281       .  A
O552       Ni556   1.913       .  S
O552        C559   1.281       .  A
O553       Ni556   1.904       .  S
O553        C558   1.280       .  A
O554       Ni556   1.904       .  S
O554        C557   1.279       .  A
Ni555      Ni556   2.389       .  S
C557       C1337   1.472       .  S
C558       C1403   1.472       .  S
C559       C1271   1.478       .  S
C560       C1469   1.476       .  S
O561       Ni569   1.913       .  S
O561        C571   1.281       .  A
O562       Ni569   1.915       .  S
O562        C572   1.281       .  A
O563       Ni569   1.919       .  S
O563        C573   1.282       .  A
O564       Ni569   1.923       .  S
O564        C574   1.283       .  A
O565       Ni570   1.908       .  S
O565        C574   1.280       .  A
O566       Ni570   1.907       .  S
O566        C573   1.280       .  A
O567       Ni570   1.918       .  S
O567        C572   1.282       .  A
O568       Ni570   1.916       .  S
O568        C571   1.282       .  A
Ni569      Ni570   2.387       .  S
C571       C1127   1.478       .  S
C572       C1997   1.481       .  S
C573       C1205   1.478       .  S
C574       C1931   1.481       .  S
O575       Ni583   1.926       .  S
O575        C585   1.284       .  A
O576       Ni583   1.924       .  S
O576        C586   1.283   1_556  A
O577       Ni583   1.920       .  S
O577        C587   1.283   1_556  A
O578       Ni583   1.923       .  S
O578        C588   1.282       .  A
O579       Ni584   1.910       .  S
O579        C588   1.282       .  A
O580       Ni584   1.912       .  S
O580        C587   1.280   1_556  A
O581       Ni584   1.906       .  S
O581        C586   1.280   1_556  A
O582       Ni584   1.909       .  S
O582        C585   1.280       .  A
Ni583      Ni584   2.386       .  S
C585       C1579   1.483       .  S
C586       C2173   1.481       .  S
C587       C1447   1.481       .  S
C588       C2305   1.483       .  S
O589       Ni597   1.905       .  S
O589        C599   1.280       .  A
O590       Ni597   1.906       .  S
O590        C600   1.280       .  A
O591       Ni597   1.913       .  S
O591        C601   1.281       .  A
O592       Ni597   1.912       .  S
O592        C602   1.281       .  A
O593       Ni598   1.924       .  S
O593        C602   1.283       .  A
O594       Ni598   1.923       .  S
O594        C601   1.283       .  A
O595       Ni598   1.919       .  S
O595        C600   1.282       .  A
O596       Ni598   1.918       .  S
O596        C599   1.282       .  A
Ni597      Ni598   2.387       .  S
C599       C1865   1.475       .  S
C600       C1535   1.477       .  S
C601       C1787   1.482       .  S
C602       C1601   1.483       .  S
O603       Ni611   1.907       .  S
O603        C613   1.280       .  A
O604       Ni611   1.908   1_655  S
O604        C614   1.280       .  A
O605       Ni611   1.915   1_655  S
O605        C615   1.281       .  A
O606       Ni611   1.913       .  S
O606        C616   1.282       .  A
O607       Ni612   1.921       .  S
O607        C616   1.281       .  A
O608       Ni612   1.916   1_655  S
O608        C615   1.282       .  A
O609       Ni612   1.920   1_655  S
O609        C614   1.282       .  A
O610       Ni612   1.923       .  S
O610        C613   1.283       .  A
Ni611      Ni612   2.386       .  S
C613        C841   1.481       .  S
C614       C1831   1.479       .  S
C615        C985   1.481       .  S
C616       C1711   1.482       .  S
O617       Ni625   1.906       .  S
O617        C627   1.280       .  A
O618       Ni625   1.910       .  S
O618        C628   1.281       .  A
O619       Ni625   1.911       .  S
O619        C629   1.281       .  A
O620       Ni625   1.912       .  S
O620        C630   1.280       .  A
O621       Ni626   1.915       .  S
O621        C630   1.281       .  A
O622       Ni626   1.918       .  S
O622        C629   1.282       .  A
O623       Ni626   1.915       .  S
O623        C628   1.281       .  A
O624       Ni626   1.916       .  S
O624        C627   1.282       .  A
Ni625      Ni626   2.388       .  S
C627       C1667   1.476       .  S
C628       C2129   1.475       .  S
C629       C1733   1.479       .  S
C630       C2063   1.472       .  S
O631       Ni639   1.923   1_556  S
O631        C641   1.283       .  A
O632       Ni639   1.923       .  S
O632        C642   1.283       .  A
O633       Ni639   1.904       .  S
O633        C643   1.279       .  A
O634       Ni639   1.906   1_556  S
O634        C644   1.279       .  A
O635       Ni640   1.913       .  S
O635        C644   1.281       .  A
O636       Ni640   1.914   1_554  S
O636        C643   1.281       .  A
O637       Ni640   1.908   1_554  S
O637        C642   1.280       .  A
O638       Ni640   1.911       .  S
O638        C641   1.280       .  A
Ni639      Ni640   2.388   1_554  S
C641       C2371   1.481       .  S
C642       C1975   1.480       .  S
C643       C2239   1.472       .  S
C644       C2107   1.473       .  S
O645       Ni653   1.920       .  S
O645        C655   1.282       .  A
O646       Ni653   1.918       .  S
O646        C656   1.282       .  A
O647       Ni653   1.925       .  S
O647        C657   1.283       .  A
O648       Ni653   1.927       .  S
O648        C658   1.283       .  A
O649       Ni654   1.908       .  S
O649        C658   1.280       .  A
O650       Ni654   1.910       .  S
O650        C657   1.280       .  A
O651       Ni654   1.912       .  S
O651        C656   1.281       .  A
O652       Ni654   1.915       .  S
O652        C655   1.282       .  A
Ni653      Ni654   2.386       .  S
C655       C2447   1.482       .  S
C656       C2393   1.480       .  S
C657       C2513   1.482       .  S
C658       C2327   1.483       .  S
O659       Ni667   1.899       .  S
O659        C669   1.279       .  A
O660       Ni667   1.899       .  S
O660        C670   1.279       .  A
O661       Ni667   1.912       .  S
O661        C671   1.281       .  A
O662       Ni667   1.911       .  S
O662        C672   1.281       .  A
O663       Ni668   1.918       .  S
O663        C672   1.282       .  A
O664       Ni668   1.918       .  S
O664        C671   1.282       .  A
O665       Ni668   1.922       .  S
O665        C670   1.282       .  A
O666       Ni668   1.922       .  S
O666        C669   1.283       .  A
Ni667      Ni668   2.387       .  S
C669       C2987   1.476       .  S
C670       C2249   1.476       .  S
C671       C3053   1.480       .  S
C672       C2195   1.478       .  S
O673       Ni681   1.902   1_545  S
O673        C683   1.279       .  A
O674       Ni681   1.902       .  S
O674        C684   1.280       .  A
O675       Ni681   1.912       .  S
O675        C685   1.281       .  A
O676       Ni681   1.911   1_545  S
O676        C686   1.281       .  A
O677       Ni682   1.917   1_545  S
O677        C686   1.281       .  A
O678       Ni682   1.916       .  S
O678        C685   1.282       .  A
O679       Ni682   1.922       .  S
O679        C684   1.282       .  A
O680       Ni682   1.923   1_545  S
O680        C683   1.283       .  A
Ni681      Ni682   2.387       .  S
C683       C2503   1.478       .  S
C684       C3349   1.478       .  S
C685       C2635   1.479       .  S
C686       C3229   1.477       .  S
O687       Ni695   1.925       .  S
O687        C697   1.283       .  A
O688       Ni695   1.922       .  S
O688        C698   1.282       .  A
O689       Ni695   1.923       .  S
O689        C699   1.283       .  A
O690       Ni695   1.922       .  S
O690        C700   1.282       .  A
O691       Ni696   1.906       .  S
O691        C700   1.280       .  A
O692       Ni696   1.905       .  S
O692        C699   1.280       .  A
O693       Ni696   1.899       .  S
O693        C698   1.279       .  A
O694       Ni696   1.898       .  S
O694        C697   1.278       .  A
Ni695      Ni696   2.388       .  S
C697       C2657   1.478       .  S
C698       C2855   1.474       .  S
C699       C2591   1.479       .  S
C700       C2921   1.477       .  S
O701       Ni709   1.919       .  S
O701        C711   1.282       .  A
O702       Ni709   1.918       .  S
O702        C712   1.282   1_554  A
O703       Ni709   1.919   1_556  S
O703        C713   1.282       .  A
O704       Ni709   1.919       .  S
O704        C714   1.282       .  A
O705       Ni710   1.915       .  S
O705        C714   1.282       .  A
O706       Ni710   1.916       .  S
O706        C713   1.281   1_554  A
O707       Ni710   1.909       .  S
O707        C712   1.281   1_554  A
O708       Ni710   1.909       .  S
O708        C711   1.281       .  A
Ni709      Ni710   2.386       .  S
C711       C2767   1.479       .  S
C712       C2029   1.479       .  S
C713       C2899   1.483       .  S
C714       C1909   1.481       .  S
O715       Ni723   1.910       .  S
O715        C725   1.281       .  A
O716       Ni723   1.908       .  S
O716        C726   1.280       .  A
O717       Ni723   1.913       .  S
O717        C727   1.281       .  A
O718       Ni723   1.911       .  S
O718        C728   1.281       .  A
O719       Ni724   1.919       .  S
O719        C728   1.282       .  A
O720       Ni724   1.920       .  S
O720        C727   1.282       .  A
O721       Ni724   1.916       .  S
O721        C726   1.282       .  A
O722       Ni724   1.916       .  S
O722        C725   1.281       .  A
Ni723      Ni724   2.388       .  S
C725       C3185   1.476       .  S
C726       C2711   1.476       .  S
C727       C3119   1.480       .  S
C728       C2777   1.479       .  S
O729       Ni737   1.907       .  S
O729        C739   1.280       .  A
O730       Ni737   1.910   1_565  S
O730        C740   1.280       .  A
O731       Ni737   1.904   1_565  S
O731        C741   1.280       .  A
O732       Ni737   1.906       .  S
O732        C742   1.280       .  A
O733       Ni738   1.917       .  S
O733        C742   1.282       .  A
O734       Ni738   1.915   1_565  S
O734        C741   1.281       .  A
O735       Ni738   1.920   1_565  S
O735        C740   1.283       .  A
O736       Ni738   1.923       .  S
O736        C739   1.283       .  A
Ni737      Ni738   2.388       .  S
C739       C3295   1.479       .  S
C740       C3163   1.480       .  S
C741       C3427   1.474       .  S
C742       C3019   1.474       .  S
O743       Ni751   1.915       .  S
O743        C753   1.281       .  A
O744       Ni751   1.912       .  S
O744        C754   1.281       .  A
O745       Ni751   1.914       .  S
O745        C755   1.281       .  A
O746       Ni751   1.914       .  S
O746        C756   1.281       .  A
O747       Ni752   1.912       .  S
O747        C756   1.281       .  A
O748       Ni752   1.909       .  S
O748        C755   1.281       .  A
O749       Ni752   1.908       .  S
O749        C754   1.280       .  A
O750       Ni752   1.909       .  S
O750        C753   1.281       .  A
Ni751      Ni752   2.388       .  S
C753       C3515   1.476       .  S
C754       C3437   1.472       .  S
C755       C3581   1.477       .  S
C756       C3383   1.477       .  S
O757       Ni765   1.915   1_455  S
O757        C767   1.282       .  A
O758       Ni765   1.917       .  S
O758        C768   1.282       .  A
O759       Ni765   1.898       .  S
O759        C769   1.279       .  A
O760       Ni765   1.901   1_455  S
O760        C770   1.278       .  A
O761       Ni766   1.928   1_455  S
O761        C770   1.284       .  A
O762       Ni766   1.929       .  S
O762        C769   1.283       .  A
O763       Ni766   1.915       .  S
O763        C768   1.281       .  A
O764       Ni766   1.912   1_455  S
O764        C767   1.281       .  A
Ni765      Ni766   2.387       .  S
C767       C3559   1.478       .  S
C768       C1249   1.480       .  S
C769       C3691   1.479       .  S
C770       C1105   1.478       .  S
O771       Ni779   1.905       .  S
O771        C781   1.280       .  A
O772       Ni779   1.909       .  S
O772        C782   1.280       .  A
O773       Ni779   1.911       .  S
O773        C783   1.281       .  A
O774       Ni779   1.909       .  S
O774        C784   1.281       .  A
O775       Ni780   1.912       .  S
O775        C784   1.281       .  A
O776       Ni780   1.915       .  S
O776        C783   1.281       .  A
O777       Ni780   1.922       .  S
O777        C782   1.283       .  A
O778       Ni780   1.922       .  S
O778        C781   1.282       .  A
Ni779      Ni780   2.388       .  S
C781       C3977   1.479       .  S
C782       C3647   1.480       .  S
C783       C3911   1.476       .  S
C784       C3713   1.474       .  S
O785       Ni793   1.917       .  S
O785        C795   1.281       .  A
O786       Ni793   1.917   1_565  S
O786        C796   1.282       .  A
O787       Ni793   1.925   1_565  S
O787        C797   1.283       .  A
O788       Ni793   1.925       .  S
O788        C798   1.283       .  A
O789       Ni794   1.900       .  S
O789        C798   1.279       .  A
O790       Ni794   1.902   1_565  S
O790        C797   1.279       .  A
O791       Ni794   1.916   1_565  S
O791        C796   1.282       .  A
O792       Ni794   1.915       .  S
O792        C795   1.282       .  A
Ni793      Ni794   2.387       .  S
C795       C3811   1.481       .  S
C796       C3097   1.482       .  S
C797       C3955   1.479       .  S
C798       C2965   1.478       .  S
O799       Ni807   1.906       .  S
O799        C809   1.280       .  A
O800       Ni807   1.908       .  S
O800        C810   1.280   1_455  A
O801       Ni807   1.921       .  S
O801        C811   1.283   1_455  A
O802       Ni807   1.922       .  S
O802        C812   1.282       .  A
O803       Ni808   1.907       .  S
O803        C812   1.280       .  A
O804       Ni808   1.910       .  S
O804        C811   1.280   1_455  A
O805       Ni808   1.925       .  S
O805        C810   1.284   1_455  A
O806       Ni808   1.926       .  S
O806        C809   1.284       .  A
Ni807      Ni808   2.386       .  S
C809       C3493   1.481       .  S
C810       C1777   1.482       .  S
C811       C3625   1.479       .  S
C812       C1645   1.480       .  S
O813       Ni821   1.913       .  S
O813        C823   1.282   1_565  A
O814       Ni821   1.914       .  S
O814        C824   1.281       .  A
O815       Ni821   1.905       .  S
O815        C825   1.279       .  A
O816       Ni821   1.906       .  S
O816        C826   1.280   1_565  A
O817       Ni822   1.930       .  S
O817        C826   1.284   1_565  A
O818       Ni822   1.928       .  S
O818        C825   1.284       .  A
O819       Ni822   1.916       .  S
O819        C824   1.281       .  A
O820       Ni822   1.916       .  S
O820        C823   1.281   1_565  A
Ni821      Ni822   2.386       .  S
C823       C3757   1.479       .  S
C824       C2557   1.477       .  S
C825       C3889   1.482       .  S
C826       C2437   1.484       .  S
O827       Ni835   1.924       .  S
O827        C837   1.283       .  A
O828       Ni835   1.922   1_554  S
O828        C838   1.283       .  A
O829       Ni835   1.915   1_554  S
O829        C839   1.281       .  A
O830       Ni835   1.917       .  S
O830        C840   1.281       .  A
O831       Ni836   1.914       .  S
O831        C840   1.282       .  A
O832       Ni836   1.913   1_554  S
O832        C839   1.281       .  A
O833       Ni836   1.893   1_554  S
O833        C838   1.278       .  A
O834       Ni836   1.897       .  S
O834        C837   1.278       .  A
Ni835      Ni836   2.387       .  S
C837       C2833   1.475       .  S
C838       C1381   1.473       .  S
C839       C2689   1.479       .  S
C840       C1513   1.481       .  S
C841        C842   1.401       .  A
C841        C846   1.402       .  A
C842        C843   1.399       .  A
C842        H855   1.083       .  S
C843        C844   1.416       .  A
C843        H856   1.077       .  S
C844        C850   1.430       .  A
C844        C845   1.422       .  A
C845        C847   1.399       .  A
C845        C846   1.401       .  A
C846        H857   1.084       .  S
C847        C848   1.387       .  A
C847        H858   1.084       .  S
C848        C849   1.398       .  A
C848        H859   1.084       .  S
C849        C850   1.423       .  A
C849        C854   1.401       .  A
C850        C851   1.415       .  A
C851        C852   1.397       .  A
C851        H860   1.077       .  S
C852        C853   1.400       .  A
C852        H861   1.082       .  S
C853        C854   1.398       .  A
C854        H862   1.085       .  S
C863        C864   1.401       .  A
C863        C868   1.399       .  A
C864        C865   1.396       .  A
C864        H877   1.083       .  S
C865        C866   1.414       .  A
C865        H878   1.077       .  S
C866        C872   1.429       .  A
C866        C867   1.424       .  A
C867        C869   1.398       .  A
C867        C868   1.403       .  A
C868        H879   1.085       .  S
C869        C870   1.387       .  A
C869        H880   1.084       .  S
C870        C871   1.399       .  A
C870        H881   1.084       .  S
C871        C872   1.421       .  A
C871        C876   1.399       .  A
C872        C873   1.418       .  A
C873        C874   1.399       .  A
C873        H882   1.077       .  S
C874        C875   1.398       .  A
C874        H883   1.083       .  S
C875        C876   1.399       .  A
C876        H884   1.085       .  S
C885        C886   1.398       .  A
C885        C890   1.397       .  A
C886        C887   1.401       .  A
C886        H899   1.083       .  S
C887        C888   1.418       .  A
C887        H900   1.078       .  S
C888        C894   1.432       .  A
C888        C889   1.423       .  A
C889        C891   1.398       .  A
C889        C890   1.402       .  A
C890        H901   1.084       .  S
C891        C892   1.388       .  A
C891        H902   1.084       .  S
C892        C893   1.398       .  A
C892        H903   1.084       .  S
C893        C894   1.423       .  A
C893        C898   1.404       .  A
C894        C895   1.416       .  A
C895        C896   1.401       .  A
C895        H904   1.078       .  S
C896        C897   1.400       .  A
C896        H905   1.083       .  S
C897        C898   1.398       .  A
C898        H906   1.085       .  S
C907        C908   1.397       .  A
C907        C912   1.397       .  A
C908        C909   1.393       .  A
C908        H921   1.084       .  S
C909        C910   1.415       .  A
C909        H922   1.077       .  S
C910        C916   1.427       .  A
C910        C911   1.423       .  A
C911        C913   1.399       .  A
C911        C912   1.404       .  A
C912        H923   1.084       .  S
C913        C914   1.389       .  A
C913        H924   1.084       .  S
C914        C915   1.399       .  A
C914        H925   1.084       .  S
C915        C916   1.422       .  A
C915        C920   1.404       .  A
C916        C917   1.413       .  A
C917        C918   1.393       .  A
C917        H926   1.077       .  S
C918        C919   1.401       .  A
C918        H927   1.083       .  S
C919        C920   1.401       .  A
C920        H928   1.084       .  S
C929        C930   1.398       .  A
C929        C934   1.396       .  A
C930        C931   1.396       .  A
C930        H943   1.081       .  S
C931        C932   1.415       .  A
C931        H944   1.078       .  S
C932        C938   1.428       .  A
C932        C933   1.423       .  A
C933        C935   1.397       .  A
C933        C934   1.400       .  A
C934        H945   1.085       .  S
C935        C936   1.386       .  A
C935        H946   1.084       .  S
C936        C937   1.398       .  A
C936        H947   1.084       .  S
C937        C938   1.422       .  A
C937        C942   1.399       .  A
C938        C939   1.416       .  A
C939        C940   1.398       .  A
C939        H948   1.078       .  S
C940        C941   1.400       .  A
C940        H949   1.083       .  S
C941        C942   1.400       .  A
C942        H950   1.085       .  S
C951        C952   1.397       .  A
C951        C956   1.396       .  A
C952        C953   1.399       .  A
C952        H965   1.083       .  S
C953        C954   1.416       .  A
C953        H966   1.078       .  S
C954        C960   1.432       .  A
C954        C955   1.424       .  A
C955        C957   1.399       .  A
C955        C956   1.405       .  A
C956        H967   1.084       .  S
C957        C958   1.390       .  A
C957        H968   1.084       .  S
C958        C959   1.400       .  A
C958        H969   1.084       .  S
C959        C960   1.422       .  A
C959        C964   1.405       .  A
C960        C961   1.416       .  A
C961        C962   1.400       .  A
C961        H970   1.078       .  S
C962        C963   1.401       .  A
C962        H971   1.083       .  S
C963        C964   1.402       .  A
C964        H972   1.085       .  S
C973        C974   1.397       .  A
C973        C978   1.396       .  A
C974        C975   1.396       .  A
C974        H987   1.084       .  S
C975        C976   1.416       .  A
C975        H988   1.077       .  S
C976        C982   1.429       .  A
C976        C977   1.424       .  A
C977        C979   1.398       .  A
C977        C978   1.402       .  A
C978        H989   1.084       .  S
C979        C980   1.388       .  A
C979        H990   1.084       .  S
C980        C981   1.399       .  A
C980        H991   1.084       .  S
C981        C982   1.422       .  A
C981        C986   1.402       .  A
C982        C983   1.415       .  A
C983        C984   1.397       .  A
C983        H992   1.077       .  S
C984        C985   1.402       .  A
C984        H993   1.083       .  S
C985        C986   1.401       .  A
C986        H994   1.084       .  S
C995        C996   1.397       .  A
C995       C1000   1.398       .  A
C996        C997   1.394       .  A
C996       H1009   1.083       .  S
C997        C998   1.415       .  A
C997       H1010   1.077       .  S
C998       C1004   1.427       .  A
C998        C999   1.422       .  A
C999       C1001   1.399       .  A
C999       C1000   1.403       .  A
C1000      H1011   1.085       .  S
C1001      C1002   1.390       .  A
C1001      H1012   1.084       .  S
C1002      C1003   1.400       .  A
C1002      H1013   1.084       .  S
C1003      C1004   1.422       .  A
C1003      C1008   1.403       .  A
C1004      C1005   1.414       .  A
C1005      C1006   1.394       .  A
C1005      H1014   1.077       .  S
C1006      C1007   1.400       .  A
C1006      H1015   1.083       .  S
C1007      C1008   1.403       .  A
C1008      H1016   1.084       .  S
C1017      C1018   1.397       .  A
C1017      C1022   1.397       .  A
C1018      C1019   1.399       .  A
C1018      H1031   1.083       .  S
C1019      C1020   1.417       .  A
C1019      H1032   1.078       .  S
C1020      C1026   1.432       .  A
C1020      C1021   1.423       .  A
C1021      C1023   1.399       .  A
C1021      C1022   1.405       .  A
C1022      H1033   1.084       .  S
C1023      C1024   1.390       .  A
C1023      H1034   1.084       .  S
C1024      C1025   1.400       .  A
C1024      H1035   1.084       .  S
C1025      C1026   1.423       .  A
C1025      C1030   1.407       .  A
C1026      C1027   1.415       .  A
C1027      C1028   1.399       .  A
C1027      H1036   1.078       .  S
C1028      C1029   1.401       .  A
C1028      H1037   1.083       .  S
C1029      C1030   1.401       .  A
C1030      H1038   1.085       .  S
C1039      C1040   1.395       .  A
C1039      C1044   1.395       .  A
C1040      C1041   1.393       .  A
C1040      H1053   1.083       .  S
C1041      C1042   1.415       .  A
C1041      H1054   1.078       .  S
C1042      C1048   1.427       .  A
C1042      C1043   1.424       .  A
C1043      C1045   1.398       .  A
C1043      C1044   1.403       .  A
C1044      H1055   1.085       .  S
C1045      C1046   1.389       .  A
C1045      H1056   1.084       .  S
C1046      C1047   1.399       .  A
C1046      H1057   1.084       .  S
C1047      C1048   1.422       .  A
C1047      C1052   1.403       .  A
C1048      C1049   1.414       .  A
C1049      C1050   1.394       .  A
C1049      H1058   1.078       .  S
C1050      C1051   1.400       .  A
C1050      H1059   1.083       .  S
C1051      C1052   1.401       .  A
C1052      H1060   1.085       .  S
C1061      C1062   1.399       .  A
C1061      C1066   1.398       .  A
C1062      C1063   1.397       .  A
C1062      H1075   1.082       .  S
C1063      C1064   1.415       .  A
C1063      H1076   1.077       .  S
C1064      C1070   1.429       .  A
C1064      C1065   1.423       .  A
C1065      C1067   1.398       .  A
C1065      C1066   1.401       .  A
C1066      H1077   1.085       .  S
C1067      C1068   1.387       .  A
C1067      H1078   1.084       .  S
C1068      C1069   1.399       .  A
C1068      H1079   1.084       .  S
C1069      C1070   1.422       .  A
C1069      C1074   1.401       .  A
C1070      C1071   1.416       .  A
C1071      C1072   1.398       .  A
C1071      H1080   1.077       .  S
C1072      C1073   1.401       .  A
C1072      H1081   1.083       .  S
C1073      C1074   1.402       .  A
C1074      H1082   1.084       .  S
C1083      C1084   1.397       .  A
C1083      C1088   1.399       .  A
C1084      C1085   1.398       .  A
C1084      H1097   1.083       .  S
C1085      C1086   1.416       .  A
C1085      H1098   1.078       .  S
C1086      C1092   1.432       .  A
C1086      C1087   1.423       .  A
C1087      C1089   1.400       .  A
C1087      C1088   1.407       .  A
C1088      H1099   1.084       .  S
C1089      C1090   1.392       .  A
C1089      H1100   1.084       .  S
C1090      C1091   1.400       .  A
C1090      H1101   1.084       .  S
C1091      C1092   1.423       .  A
C1091      C1096   1.409       .  A
C1092      C1093   1.415       .  A
C1093      C1094   1.398       .  A
C1093      H1102   1.078       .  S
C1094      C1095   1.399       .  A
C1094      H1103   1.084       .  S
C1095      C1096   1.401       .  A
C1096      H1104   1.085       .  S
C1105      C1106   1.402       .  A
C1105      C1110   1.400       .  A
C1106      C1107   1.393       .  A
C1106      H1119   1.083       .  S
C1107      C1108   1.413       .  A
C1107      H1120   1.077       .  S
C1108      C1114   1.429       .  A
C1108      C1109   1.423       .  A
C1109      C1111   1.399       .  A
C1109      C1110   1.406       .  A
C1110      H1121   1.084       .  S
C1111      C1112   1.390       .  A
C1111      H1122   1.084       .  S
C1112      C1113   1.399       .  A
C1112      H1123   1.084       .  S
C1113      C1114   1.423       .  A
C1113      C1118   1.405       .  A
C1114      C1115   1.415       .  A
C1115      C1116   1.394       .  A
C1115      H1124   1.077       .  S
C1116      C1117   1.399       .  A
C1116      H1125   1.084       .  S
C1117      C1118   1.400       .  A
C1118      H1126   1.083       .  S
C1127      C1128   1.401       .  A
C1127      C1132   1.400       .  A
C1128      C1129   1.397       .  A
C1128      H1141   1.083       .  S
C1129      C1130   1.414       .  A
C1129      H1142   1.077       .  S
C1130      C1136   1.429       .  A
C1130      C1131   1.423       .  A
C1131      C1133   1.398       .  A
C1131      C1132   1.402       .  A
C1132      H1143   1.084       .  S
C1133      C1134   1.387       .  A
C1133      H1144   1.084       .  S
C1134      C1135   1.398       .  A
C1134      H1145   1.084       .  S
C1135      C1136   1.422       .  A
C1135      C1140   1.401       .  A
C1136      C1137   1.417       .  A
C1137      C1138   1.398       .  A
C1137      H1146   1.077       .  S
C1138      C1139   1.398       .  A
C1138      H1147   1.082       .  S
C1139      C1140   1.398       .  A
C1140      H1148   1.085       .  S
C1149      C1150   1.397       .  A
C1149      C1154   1.396       .  A
C1150      C1151   1.399       .  A
C1150      H1163   1.083       .  S
C1151      C1152   1.417       .  A
C1151      H1164   1.078       .  S
C1152      C1158   1.431       .  A
C1152      C1153   1.423       .  A
C1153      C1155   1.398       .  A
C1153      C1154   1.403       .  A
C1154      H1165   1.084       .  S
C1155      C1156   1.389       .  A
C1155      H1166   1.084       .  S
C1156      C1157   1.399       .  A
C1156      H1167   1.084       .  S
C1157      C1158   1.423       .  A
C1157      C1162   1.404       .  A
C1158      C1159   1.416       .  A
C1159      C1160   1.400       .  A
C1159      H1168   1.078       .  S
C1160      C1161   1.401       .  A
C1160      H1169   1.083       .  S
C1161      C1162   1.400       .  A
C1162      H1170   1.085       .  S
C1171      C1172   1.397       .  A
C1171      C1176   1.399       .  A
C1172      C1173   1.393       .  A
C1172      H1185   1.084       .  S
C1173      C1174   1.414       .  A
C1173      H1186   1.077       .  S
C1174      C1180   1.428       .  A
C1174      C1175   1.423       .  A
C1175      C1177   1.399       .  A
C1175      C1176   1.404       .  A
C1176      H1187   1.084       .  S
C1177      C1178   1.389       .  A
C1177      H1188   1.084       .  S
C1178      C1179   1.400       .  A
C1178      H1189   1.084       .  S
C1179      C1180   1.422       .  A
C1179      C1184   1.403       .  A
C1180      C1181   1.415       .  A
C1181      C1182   1.395       .  A
C1181      H1190   1.077       .  S
C1182      C1183   1.400       .  A
C1182      H1191   1.083       .  S
C1183      C1184   1.402       .  A
C1184      H1192   1.084       .  S
C1193      C1194   1.398       .  A
C1193      C1198   1.397       .  A
C1194      C1195   1.396       .  A
C1194      H1207   1.083       .  S
C1195      C1196   1.416       .  A
C1195      H1208   1.078       .  S
C1196      C1202   1.427       .  A
C1196      C1197   1.422       .  A
C1197      C1199   1.398       .  A
C1197      C1198   1.400       .  A
C1198      H1209   1.085       .  S
C1199      C1200   1.388       .  A
C1199      H1210   1.084       .  S
C1200      C1201   1.399       .  A
C1200      H1211   1.084       .  S
C1201      C1202   1.422       .  A
C1201      C1206   1.401       .  A
C1202      C1203   1.415       .  A
C1203      C1204   1.396       .  A
C1203      H1212   1.077       .  S
C1204      C1205   1.400       .  A
C1204      H1213   1.083       .  S
C1205      C1206   1.402       .  A
C1206      H1214   1.084       .  S
C1215      C1216   1.400       .  A
C1215      C1220   1.401       .  A
C1216      C1217   1.399       .  A
C1216      H1229   1.083       .  S
C1217      C1218   1.416       .  A
C1217      H1230   1.078       .  S
C1218      C1224   1.431       .  A
C1218      C1219   1.422       .  A
C1219      C1221   1.399       .  A
C1219      C1220   1.405       .  A
C1220      H1231   1.085       .  S
C1221      C1222   1.390       .  A
C1221      H1232   1.084       .  S
C1222      C1223   1.399       .  A
C1222      H1233   1.084       .  S
C1223      C1224   1.424       .  A
C1223      C1228   1.405       .  A
C1224      C1225   1.416       .  A
C1225      C1226   1.398       .  A
C1225      H1234   1.077       .  S
C1226      C1227   1.396       .  A
C1226      H1235   1.083       .  S
C1227      C1228   1.397       .  A
C1228      H1236   1.084       .  S
C1237      C1238   1.398       .  A
C1237      C1242   1.398       .  A
C1238      C1239   1.397       .  A
C1238      H1251   1.082       .  S
C1239      C1240   1.416       .  A
C1239      H1252   1.077       .  S
C1240      C1246   1.429       .  A
C1240      C1241   1.422       .  A
C1241      C1243   1.398       .  A
C1241      C1242   1.401       .  A
C1242      H1253   1.085       .  S
C1243      C1244   1.388       .  A
C1243      H1254   1.084       .  S
C1244      C1245   1.399       .  A
C1244      H1255   1.084       .  S
C1245      C1246   1.422       .  A
C1245      C1250   1.403       .  A
C1246      C1247   1.414       .  A
C1247      C1248   1.397       .  A
C1247      H1256   1.077       .  S
C1248      C1249   1.402       .  A
C1248      H1257   1.083       .  S
C1249      C1250   1.401       .  A
C1250      H1258   1.084       .  S
C1259      C1260   1.398       .  A
C1259      C1264   1.400       .  A
C1260      C1261   1.393       .  A
C1260      H1273   1.084       .  S
C1261      C1262   1.414       .  A
C1261      H1274   1.076       .  S
C1262      C1268   1.428       .  A
C1262      C1263   1.423       .  A
C1263      C1265   1.399       .  A
C1263      C1264   1.404       .  A
C1264      H1275   1.083       .  S
C1265      C1266   1.389       .  A
C1265      H1276   1.084       .  S
C1266      C1267   1.400       .  A
C1266      H1277   1.084       .  S
C1267      C1268   1.422       .  A
C1267      C1272   1.403       .  A
C1268      C1269   1.415       .  A
C1269      C1270   1.394       .  A
C1269      H1278   1.076       .  S
C1270      C1271   1.400       .  A
C1270      H1279   1.083       .  S
C1271      C1272   1.402       .  A
C1272      H1280   1.084       .  S
C1281      C1282   1.396       .  A
C1281      C1286   1.397       .  A
C1282      C1283   1.397       .  A
C1282      H1295   1.083       .  S
C1283      C1284   1.416       .  A
C1283      H1296   1.077       .  S
C1284      C1290   1.430       .  A
C1284      C1285   1.424       .  A
C1285      C1287   1.399       .  A
C1285      C1286   1.404       .  A
C1286      H1297   1.084       .  S
C1287      C1288   1.390       .  A
C1287      H1298   1.084       .  S
C1288      C1289   1.399       .  A
C1288      H1299   1.084       .  S
C1289      C1290   1.423       .  A
C1289      C1294   1.405       .  A
C1290      C1291   1.416       .  A
C1291      C1292   1.397       .  A
C1291      H1300   1.077       .  S
C1292      C1293   1.398       .  A
C1292      H1301   1.084       .  S
C1293      C1294   1.399       .  A
C1294      H1302   1.085       .  S
C1303      C1304   1.397       .  A
C1303      C1308   1.396       .  A
C1304      C1305   1.396       .  A
C1304      H1317   1.083       .  S
C1305      C1306   1.416       .  A
C1305      H1318   1.077       .  S
C1306      C1312   1.427       .  A
C1306      C1307   1.423       .  A
C1307      C1309   1.398       .  A
C1307      C1308   1.399       .  A
C1308      H1319   1.085       .  S
C1309      C1310   1.386       .  A
C1309      H1320   1.084       .  S
C1310      C1311   1.398       .  A
C1310      H1321   1.084       .  S
C1311      C1312   1.421       .  A
C1311      C1316   1.399       .  A
C1312      C1313   1.415       .  A
C1313      C1314   1.397       .  A
C1313      H1322   1.077       .  S
C1314      C1315   1.401       .  A
C1314      H1323   1.083       .  S
C1315      C1316   1.401       .  A
C1316      H1324   1.084       .  S
C1325      C1326   1.397       .  A
C1325      C1330   1.396       .  A
C1326      C1327   1.393       .  A
C1326      H1339   1.083       .  S
C1327      C1328   1.415       .  A
C1327      H1340   1.077       .  S
C1328      C1334   1.425       .  A
C1328      C1329   1.422       .  A
C1329      C1331   1.398       .  A
C1329      C1330   1.399       .  A
C1330      H1341   1.085       .  S
C1331      C1332   1.387       .  A
C1331      H1342   1.084       .  S
C1332      C1333   1.398       .  A
C1332      H1343   1.084       .  S
C1333      C1334   1.422       .  A
C1333      C1338   1.399       .  A
C1334      C1335   1.414       .  A
C1335      C1336   1.393       .  A
C1335      H1344   1.077       .  S
C1336      C1337   1.399       .  A
C1336      H1345   1.083       .  S
C1337      C1338   1.400       .  A
C1338      H1346   1.085       .  S
C1347      C1348   1.399       .  A
C1347      C1352   1.397       .  A
C1348      C1349   1.399       .  A
C1348      H1361   1.083       .  S
C1349      C1350   1.417       .  A
C1349      H1362   1.078       .  S
C1350      C1356   1.431       .  A
C1350      C1351   1.423       .  A
C1351      C1353   1.398       .  A
C1351      C1352   1.403       .  A
C1352      H1363   1.084       .  S
C1353      C1354   1.388       .  A
C1353      H1364   1.084       .  S
C1354      C1355   1.398       .  A
C1354      H1365   1.084       .  S
C1355      C1356   1.424       .  A
C1355      C1360   1.404       .  A
C1356      C1357   1.417       .  A
C1357      C1358   1.400       .  A
C1357      H1366   1.078       .  S
C1358      C1359   1.398       .  A
C1358      H1367   1.084       .  S
C1359      C1360   1.397       .  A
C1360      H1368   1.085       .  S
C1369      C1370   1.393       .  A
C1369      C1374   1.399       .  A
C1370      C1371   1.388       .  A
C1370      H1383   1.084       .  S
C1371      C1372   1.415       .  A
C1371      H1384   1.076       .  S
C1372      C1378   1.423       .  A
C1372      C1373   1.422       .  A
C1373      C1375   1.400       .  A
C1373      C1374   1.403       .  A
C1374      H1385   1.084       .  S
C1375      C1376   1.391       .  A
C1375      H1386   1.084       .  S
C1376      C1377   1.400       .  A
C1376      H1387   1.084       .  S
C1377      C1378   1.423       .  A
C1377      C1382   1.405       .  A
C1378      C1379   1.411       .  A
C1379      C1380   1.386       .  A
C1379      H1388   1.076       .  S
C1380      C1381   1.400       .  A
C1380      H1389   1.083       .  S
C1381      C1382   1.401       .  A
C1382      H1390   1.084       .  S
C1391      C1392   1.397       .  A
C1391      C1396   1.395       .  A
C1392      C1393   1.394       .  A
C1392      H1405   1.083       .  S
C1393      C1394   1.416       .  A
C1393      H1406   1.077       .  S
C1394      C1400   1.425       .  A
C1394      C1395   1.422       .  A
C1395      C1397   1.397       .  A
C1395      C1396   1.397       .  A
C1396      H1407   1.085       .  S
C1397      C1398   1.386       .  A
C1397      H1408   1.084       .  S
C1398      C1399   1.398       .  A
C1398      H1409   1.084       .  S
C1399      C1400   1.422       .  A
C1399      C1404   1.398       .  A
C1400      C1401   1.414       .  A
C1401      C1402   1.394       .  A
C1401      H1410   1.077       .  S
C1402      C1403   1.400       .  A
C1402      H1411   1.083       .  S
C1403      C1404   1.399       .  A
C1404      H1412   1.085       .  S
C1413      C1414   1.397       .  A
C1413      C1418   1.397       .  A
C1414      C1415   1.398       .  A
C1414      H1427   1.083       .  S
C1415      C1416   1.416       .  A
C1415      H1428   1.078       .  S
C1416      C1422   1.431       .  A
C1416      C1417   1.423       .  A
C1417      C1419   1.399       .  A
C1417      C1418   1.405       .  A
C1418      H1429   1.084       .  S
C1419      C1420   1.390       .  A
C1419      H1430   1.084       .  S
C1420      C1421   1.399       .  A
C1420      H1431   1.084       .  S
C1421      C1422   1.423       .  A
C1421      C1426   1.406       .  A
C1422      C1423   1.416       .  A
C1423      C1424   1.399       .  A
C1423      H1432   1.078       .  S
C1424      C1425   1.399       .  A
C1424      H1433   1.084       .  S
C1425      C1426   1.400       .  A
C1426      H1434   1.085       .  S
C1435      C1436   1.398       .  A
C1435      C1440   1.398       .  A
C1436      C1437   1.396       .  A
C1436      H1449   1.084       .  S
C1437      C1438   1.416       .  A
C1437      H1450   1.077       .  S
C1438      C1444   1.429       .  A
C1438      C1439   1.423       .  A
C1439      C1441   1.398       .  A
C1439      C1440   1.401       .  A
C1440      H1451   1.084       .  S
C1441      C1442   1.388       .  A
C1441      H1452   1.084       .  S
C1442      C1443   1.399       .  A
C1442      H1453   1.084       .  S
C1443      C1444   1.422       .  A
C1443      C1448   1.403       .  A
C1444      C1445   1.415       .  A
C1445      C1446   1.396       .  A
C1445      H1454   1.077       .  S
C1446      C1447   1.402       .  A
C1446      H1455   1.083       .  S
C1447      C1448   1.401       .  A
C1448      H1456   1.084       .  S
C1457      C1458   1.397       .  A
C1457      C1462   1.397       .  A
C1458      C1459   1.392       .  A
C1458      H1471   1.084       .  S
C1459      C1460   1.414       .  A
C1459      H1472   1.077       .  S
C1460      C1466   1.426       .  A
C1460      C1461   1.423       .  A
C1461      C1463   1.399       .  A
C1461      C1462   1.403       .  A
C1462      H1473   1.084       .  S
C1463      C1464   1.389       .  A
C1463      H1474   1.084       .  S
C1464      C1465   1.399       .  A
C1464      H1475   1.084       .  S
C1465      C1466   1.421       .  A
C1465      C1470   1.402       .  A
C1466      C1467   1.415       .  A
C1467      C1468   1.394       .  A
C1467      H1476   1.077       .  S
C1468      C1469   1.400       .  A
C1468      H1477   1.083       .  S
C1469      C1470   1.402       .  A
C1470      H1478   1.084       .  S
C1479      C1480   1.399       .  A
C1479      C1484   1.401       .  A
C1480      C1481   1.398       .  A
C1480      H1493   1.084       .  S
C1481      C1482   1.415       .  A
C1481      H1494   1.077       .  S
C1482      C1488   1.431       .  A
C1482      C1483   1.423       .  A
C1483      C1485   1.400       .  A
C1483      C1484   1.408       .  A
C1484      H1495   1.085       .  S
C1485      C1486   1.392       .  A
C1485      H1496   1.084       .  S
C1486      C1487   1.400       .  A
C1486      H1497   1.084       .  S
C1487      C1488   1.424       .  A
C1487      C1492   1.407       .  A
C1488      C1489   1.416       .  A
C1489      C1490   1.397       .  A
C1489      H1498   1.077       .  S
C1490      C1491   1.397       .  A
C1490      H1499   1.083       .  S
C1491      C1492   1.400       .  A
C1492      H1500   1.084       .  S
C1501      C1502   1.397       .  A
C1501      C1506   1.396       .  A
C1502      C1503   1.399       .  A
C1502      H1515   1.083       .  S
C1503      C1504   1.417       .  A
C1503      H1516   1.077       .  S
C1504      C1510   1.430       .  A
C1504      C1505   1.422       .  A
C1505      C1507   1.398       .  A
C1505      C1506   1.400       .  A
C1506      H1517   1.085       .  S
C1507      C1508   1.387       .  A
C1507      H1518   1.084       .  S
C1508      C1509   1.398       .  A
C1508      H1519   1.084       .  S
C1509      C1510   1.423       .  A
C1509      C1514   1.402       .  A
C1510      C1511   1.415       .  A
C1511      C1512   1.398       .  A
C1511      H1520   1.077       .  S
C1512      C1513   1.402       .  A
C1512      H1521   1.083       .  S
C1513      C1514   1.401       .  A
C1514      H1522   1.084       .  S
C1523      C1524   1.398       .  A
C1523      C1528   1.400       .  A
C1524      C1525   1.392       .  A
C1524      H1537   1.084       .  S
C1525      C1526   1.414       .  A
C1525      H1538   1.077       .  S
C1526      C1532   1.427       .  A
C1526      C1527   1.422       .  A
C1527      C1529   1.399       .  A
C1527      C1528   1.404       .  A
C1528      H1539   1.083       .  S
C1529      C1530   1.390       .  A
C1529      H1540   1.084       .  S
C1530      C1531   1.399       .  A
C1530      H1541   1.084       .  S
C1531      C1532   1.422       .  A
C1531      C1536   1.404       .  A
C1532      C1533   1.413       .  A
C1533      C1534   1.392       .  A
C1533      H1542   1.077       .  S
C1534      C1535   1.401       .  A
C1534      H1543   1.083       .  S
C1535      C1536   1.402       .  A
C1536      H1544   1.084       .  S
C1545      C1546   1.399       .  A
C1545      C1550   1.399       .  A
C1546      C1547   1.398       .  A
C1546      H1559   1.084       .  S
C1547      C1548   1.415       .  A
C1547      H1560   1.078       .  S
C1548      C1554   1.430       .  A
C1548      C1549   1.423       .  A
C1549      C1551   1.399       .  A
C1549      C1550   1.406       .  A
C1550      H1561   1.085       .  S
C1551      C1552   1.390       .  A
C1551      H1562   1.084       .  S
C1552      C1553   1.399       .  A
C1552      H1563   1.084       .  S
C1553      C1554   1.423       .  A
C1553      C1558   1.405       .  A
C1554      C1555   1.416       .  A
C1555      C1556   1.398       .  A
C1555      H1564   1.078       .  S
C1556      C1557   1.397       .  A
C1556      H1565   1.083       .  S
C1557      C1558   1.398       .  A
C1558      H1566   1.084       .  S
C1567      C1568   1.398       .  A
C1567      C1572   1.400       .  A
C1568      C1569   1.394       .  A
C1568      H1581   1.084       .  S
C1569      C1570   1.415       .  A
C1569      H1582   1.077       .  S
C1570      C1576   1.429       .  A
C1570      C1571   1.423       .  A
C1571      C1573   1.399       .  A
C1571      C1572   1.406       .  A
C1572      H1583   1.084       .  S
C1573      C1574   1.391       .  A
C1573      H1584   1.084       .  S
C1574      C1575   1.400       .  A
C1574      H1585   1.084       .  S
C1575      C1576   1.422       .  A
C1575      C1580   1.407       .  A
C1576      C1577   1.413       .  A
C1577      C1578   1.394       .  A
C1577      H1586   1.077       .  S
C1578      C1579   1.402       .  A
C1578      H1587   1.083       .  S
C1579      C1580   1.403       .  A
C1580      H1588   1.084       .  S
C1589      C1590   1.398       .  A
C1589      C1594   1.402       .  A
C1590      C1591   1.392       .  A
C1590      H1603   1.084       .  S
C1591      C1592   1.413       .  A
C1591      H1604   1.077       .  S
C1592      C1598   1.429       .  A
C1592      C1593   1.423       .  A
C1593      C1595   1.400       .  A
C1593      C1594   1.409       .  A
C1594      H1605   1.084       .  S
C1595      C1596   1.393       .  A
C1595      H1606   1.084       .  S
C1596      C1597   1.401       .  A
C1596      H1607   1.084       .  S
C1597      C1598   1.422       .  A
C1597      C1602   1.409       .  A
C1598      C1599   1.414       .  A
C1599      C1600   1.393       .  A
C1599      H1608   1.077       .  S
C1600      C1601   1.401       .  A
C1600      H1609   1.083       .  S
C1601      C1602   1.404       .  A
C1602      H1610   1.084       .  S
C1611      C1612   1.398       .  A
C1611      C1616   1.398       .  A
C1612      C1613   1.397       .  A
C1612      H1625   1.083       .  S
C1613      C1614   1.415       .  A
C1613      H1626   1.077       .  S
C1614      C1620   1.431       .  A
C1614      C1615   1.424       .  A
C1615      C1617   1.399       .  A
C1615      C1616   1.406       .  A
C1616      H1627   1.084       .  S
C1617      C1618   1.391       .  A
C1617      H1628   1.084       .  S
C1618      C1619   1.400       .  A
C1618      H1629   1.084       .  S
C1619      C1620   1.423       .  A
C1619      C1624   1.406       .  A
C1620      C1621   1.417       .  A
C1621      C1622   1.399       .  A
C1621      H1630   1.078       .  S
C1622      C1623   1.397       .  A
C1622      H1631   1.084       .  S
C1623      C1624   1.399       .  A
C1624      H1632   1.085       .  S
C1633      C1634   1.396       .  A
C1633      C1638   1.400       .  A
C1634      C1635   1.392       .  A
C1634      H1647   1.084       .  S
C1635      C1636   1.414       .  A
C1635      H1648   1.077       .  S
C1636      C1642   1.427       .  A
C1636      C1637   1.422       .  A
C1637      C1639   1.400       .  A
C1637      C1638   1.406       .  A
C1638      H1649   1.084       .  S
C1639      C1640   1.392       .  A
C1639      H1650   1.084       .  S
C1640      C1641   1.400       .  A
C1640      H1651   1.084       .  S
C1641      C1642   1.422       .  A
C1641      C1646   1.407       .  A
C1642      C1643   1.412       .  A
C1643      C1644   1.391       .  A
C1643      H1652   1.077       .  S
C1644      C1645   1.401       .  A
C1644      H1653   1.083       .  S
C1645      C1646   1.403       .  A
C1646      H1654   1.084       .  S
C1655      C1656   1.395       .  A
C1655      C1660   1.398       .  A
C1656      C1657   1.392       .  A
C1656      H1669   1.084       .  S
C1657      C1658   1.415       .  A
C1657      H1670   1.076       .  S
C1658      C1664   1.426       .  A
C1658      C1659   1.423       .  A
C1659      C1661   1.399       .  A
C1659      C1660   1.403       .  A
C1660      H1671   1.085       .  S
C1661      C1662   1.390       .  A
C1661      H1672   1.084       .  S
C1662      C1663   1.399       .  A
C1662      H1673   1.084       .  S
C1663      C1664   1.422       .  A
C1663      C1668   1.404       .  A
C1664      C1665   1.413       .  A
C1665      C1666   1.392       .  A
C1665      H1674   1.077       .  S
C1666      C1667   1.400       .  A
C1666      H1675   1.083       .  S
C1667      C1668   1.402       .  A
C1668      H1676   1.084       .  S
C1677      C1678   1.398       .  A
C1677      C1682   1.400       .  A
C1678      C1679   1.398       .  A
C1678      H1691   1.084       .  S
C1679      C1680   1.416       .  A
C1679      H1692   1.078       .  S
C1680      C1686   1.430       .  A
C1680      C1681   1.423       .  A
C1681      C1683   1.400       .  A
C1681      C1682   1.405       .  A
C1682      H1693   1.085       .  S
C1683      C1684   1.390       .  A
C1683      H1694   1.084       .  S
C1684      C1685   1.399       .  A
C1684      H1695   1.084       .  S
C1685      C1686   1.423       .  A
C1685      C1690   1.404       .  A
C1686      C1687   1.416       .  A
C1687      C1688   1.397       .  A
C1687      H1696   1.078       .  S
C1688      C1689   1.397       .  A
C1688      H1697   1.083       .  S
C1689      C1690   1.397       .  A
C1690      H1698   1.084       .  S
C1699      C1700   1.396       .  A
C1699      C1704   1.401       .  A
C1700      C1701   1.390       .  A
C1700      H1713   1.084       .  S
C1701      C1702   1.414       .  A
C1701      H1714   1.076       .  S
C1702      C1708   1.428       .  A
C1702      C1703   1.424       .  A
C1703      C1705   1.401       .  A
C1703      C1704   1.410       .  A
C1704      H1715   1.084       .  S
C1705      C1706   1.394       .  A
C1705      H1716   1.084       .  S
C1706      C1707   1.401       .  A
C1706      H1717   1.084       .  S
C1707      C1708   1.422       .  A
C1707      C1712   1.409       .  A
C1708      C1709   1.413       .  A
C1709      C1710   1.391       .  A
C1709      H1718   1.076       .  S
C1710      C1711   1.400       .  A
C1710      H1719   1.083       .  S
C1711      C1712   1.405       .  A
C1712      H1720   1.084       .  S
C1721      C1722   1.396       .  A
C1721      C1726   1.400       .  A
C1722      C1723   1.393       .  A
C1722      H1735   1.084       .  S
C1723      C1724   1.415       .  A
C1723      H1736   1.077       .  S
C1724      C1730   1.428       .  A
C1724      C1725   1.423       .  A
C1725      C1727   1.400       .  A
C1725      C1726   1.405       .  A
C1726      H1737   1.084       .  S
C1727      C1728   1.391       .  A
C1727      H1738   1.084       .  S
C1728      C1729   1.400       .  A
C1728      H1739   1.084       .  S
C1729      C1730   1.422       .  A
C1729      C1734   1.405       .  A
C1730      C1731   1.414       .  A
C1731      C1732   1.393       .  A
C1731      H1740   1.077       .  S
C1732      C1733   1.400       .  A
C1732      H1741   1.083       .  S
C1733      C1734   1.403       .  A
C1734      H1742   1.084       .  S
C1743      C1744   1.397       .  A
C1743      C1748   1.397       .  A
C1744      C1745   1.399       .  A
C1744      H1757   1.083       .  S
C1745      C1746   1.417       .  A
C1745      H1758   1.078       .  S
C1746      C1752   1.430       .  A
C1746      C1747   1.423       .  A
C1747      C1749   1.399       .  A
C1747      C1748   1.403       .  A
C1748      H1759   1.084       .  S
C1749      C1750   1.389       .  A
C1749      H1760   1.084       .  S
C1750      C1751   1.399       .  A
C1750      H1761   1.084       .  S
C1751      C1752   1.423       .  A
C1751      C1756   1.405       .  A
C1752      C1753   1.416       .  A
C1753      C1754   1.399       .  A
C1753      H1762   1.078       .  S
C1754      C1755   1.399       .  A
C1754      H1763   1.083       .  S
C1755      C1756   1.400       .  A
C1756      H1764   1.085       .  S
C1765      C1766   1.399       .  A
C1765      C1770   1.399       .  A
C1766      C1767   1.395       .  A
C1766      H1779   1.084       .  S
C1767      C1768   1.414       .  A
C1767      H1780   1.077       .  S
C1768      C1774   1.430       .  A
C1768      C1769   1.424       .  A
C1769      C1771   1.399       .  A
C1769      C1770   1.406       .  A
C1770      H1781   1.084       .  S
C1771      C1772   1.389       .  A
C1771      H1782   1.084       .  S
C1772      C1773   1.400       .  A
C1772      H1783   1.084       .  S
C1773      C1774   1.421       .  A
C1773      C1778   1.403       .  A
C1774      C1775   1.417       .  A
C1775      C1776   1.398       .  A
C1775      H1784   1.077       .  S
C1776      C1777   1.400       .  A
C1776      H1785   1.083       .  S
C1777      C1778   1.403       .  A
C1778      H1786   1.084       .  S
C1787      C1788   1.401       .  A
C1787      C1792   1.402       .  A
C1788      C1789   1.398       .  A
C1788      H1801   1.083       .  S
C1789      C1790   1.415       .  A
C1789      H1802   1.077       .  S
C1790      C1796   1.431       .  A
C1790      C1791   1.422       .  A
C1791      C1793   1.399       .  A
C1791      C1792   1.403       .  A
C1792      H1803   1.084       .  S
C1793      C1794   1.388       .  A
C1793      H1804   1.084       .  S
C1794      C1795   1.399       .  A
C1794      H1805   1.084       .  S
C1795      C1796   1.423       .  A
C1795      C1800   1.403       .  A
C1796      C1797   1.416       .  A
C1797      C1798   1.398       .  A
C1797      H1806   1.077       .  S
C1798      C1799   1.398       .  A
C1798      H1807   1.083       .  S
C1799      C1800   1.399       .  A
C1800      H1808   1.085       .  S
C1809      C1810   1.396       .  A
C1809      C1814   1.398       .  A
C1810      C1811   1.396       .  A
C1810      H1823   1.083       .  S
C1811      C1812   1.416       .  A
C1811      H1824   1.077       .  S
C1812      C1818   1.430       .  A
C1812      C1813   1.423       .  A
C1813      C1815   1.399       .  A
C1813      C1814   1.405       .  A
C1814      H1825   1.084       .  S
C1815      C1816   1.391       .  A
C1815      H1826   1.084       .  S
C1816      C1817   1.400       .  A
C1816      H1827   1.084       .  S
C1817      C1818   1.423       .  A
C1817      C1822   1.406       .  A
C1818      C1819   1.415       .  A
C1819      C1820   1.397       .  A
C1819      H1828   1.078       .  S
C1820      C1821   1.399       .  A
C1820      H1829   1.084       .  S
C1821      C1822   1.400       .  A
C1822      H1830   1.085       .  S
C1831      C1832   1.401       .  A
C1831      C1836   1.402       .  A
C1832      C1833   1.392       .  A
C1832      H1845   1.083       .  S
C1833      C1834   1.413       .  A
C1833      H1846   1.077       .  S
C1834      C1840   1.427       .  A
C1834      C1835   1.422       .  A
C1835      C1837   1.400       .  A
C1835      C1836   1.405       .  A
C1836      H1847   1.084       .  S
C1837      C1838   1.390       .  A
C1837      H1848   1.084       .  S
C1838      C1839   1.399       .  A
C1838      H1849   1.084       .  S
C1839      C1840   1.423       .  A
C1839      C1844   1.405       .  A
C1840      C1841   1.414       .  A
C1841      C1842   1.392       .  A
C1841      H1850   1.077       .  S
C1842      C1843   1.396       .  A
C1842      H1851   1.084       .  S
C1843      C1844   1.399       .  A
C1844      H1852   1.084       .  S
C1853      C1854   1.398       .  A
C1853      C1858   1.395       .  A
C1854      C1855   1.396       .  A
C1854      H1867   1.083       .  S
C1855      C1856   1.416       .  A
C1855      H1868   1.077       .  S
C1856      C1862   1.427       .  A
C1856      C1857   1.423       .  A
C1857      C1859   1.397       .  A
C1857      C1858   1.399       .  A
C1858      H1869   1.085       .  S
C1859      C1860   1.386       .  A
C1859      H1870   1.084       .  S
C1860      C1861   1.398       .  A
C1860      H1871   1.084       .  S
C1861      C1862   1.422       .  A
C1861      C1866   1.398       .  A
C1862      C1863   1.416       .  A
C1863      C1864   1.397       .  A
C1863      H1872   1.077       .  S
C1864      C1865   1.400       .  A
C1864      H1873   1.083       .  S
C1865      C1866   1.400       .  A
C1866      H1874   1.085       .  S
C1875      C1876   1.398       .  A
C1875      C1880   1.396       .  A
C1876      C1877   1.399       .  A
C1876      H1889   1.083       .  S
C1877      C1878   1.416       .  A
C1877      H1890   1.078       .  S
C1878      C1884   1.431       .  A
C1878      C1879   1.423       .  A
C1879      C1881   1.398       .  A
C1879      C1880   1.404       .  A
C1880      H1891   1.084       .  S
C1881      C1882   1.389       .  A
C1881      H1892   1.084       .  S
C1882      C1883   1.399       .  A
C1882      H1893   1.084       .  S
C1883      C1884   1.423       .  A
C1883      C1888   1.404       .  A
C1884      C1885   1.416       .  A
C1885      C1886   1.400       .  A
C1885      H1894   1.078       .  S
C1886      C1887   1.400       .  A
C1886      H1895   1.083       .  S
C1887      C1888   1.400       .  A
C1888      H1896   1.085       .  S
C1897      C1898   1.398       .  A
C1897      C1902   1.398       .  A
C1898      C1899   1.400       .  A
C1898      H1911   1.083       .  S
C1899      C1900   1.418       .  A
C1899      H1912   1.077       .  S
C1900      C1906   1.431       .  A
C1900      C1901   1.422       .  A
C1901      C1903   1.398       .  A
C1901      C1902   1.400       .  A
C1902      H1913   1.085       .  S
C1903      C1904   1.387       .  A
C1903      H1914   1.084       .  S
C1904      C1905   1.398       .  A
C1904      H1915   1.084       .  S
C1905      C1906   1.423       .  A
C1905      C1910   1.403       .  A
C1906      C1907   1.415       .  A
C1907      C1908   1.398       .  A
C1907      H1916   1.077       .  S
C1908      C1909   1.402       .  A
C1908      H1917   1.083       .  S
C1909      C1910   1.401       .  A
C1910      H1918   1.084       .  S
C1919      C1920   1.400       .  A
C1919      C1924   1.400       .  A
C1920      C1921   1.398       .  A
C1920      H1933   1.081       .  S
C1921      C1922   1.416       .  A
C1921      H1934   1.077       .  S
C1922      C1928   1.430       .  A
C1922      C1923   1.422       .  A
C1923      C1925   1.398       .  A
C1923      C1924   1.402       .  A
C1924      H1935   1.085       .  S
C1925      C1926   1.387       .  A
C1925      H1936   1.084       .  S
C1926      C1927   1.399       .  A
C1926      H1937   1.084       .  S
C1927      C1928   1.422       .  A
C1927      C1932   1.401       .  A
C1928      C1929   1.416       .  A
C1929      C1930   1.399       .  A
C1929      H1938   1.077       .  S
C1930      C1931   1.401       .  A
C1930      H1939   1.083       .  S
C1931      C1932   1.402       .  A
C1932      H1940   1.084       .  S
C1941      C1942   1.397       .  A
C1941      C1946   1.397       .  A
C1942      C1943   1.399       .  A
C1942      H1955   1.083       .  S
C1943      C1944   1.417       .  A
C1943      H1956   1.078       .  S
C1944      C1950   1.432       .  A
C1944      C1945   1.423       .  A
C1945      C1947   1.399       .  A
C1945      C1946   1.405       .  A
C1946      H1957   1.084       .  S
C1947      C1948   1.391       .  A
C1947      H1958   1.084       .  S
C1948      C1949   1.400       .  A
C1948      H1959   1.084       .  S
C1949      C1950   1.423       .  A
C1949      C1954   1.406       .  A
C1950      C1951   1.416       .  A
C1951      C1952   1.400       .  A
C1951      H1960   1.078       .  S
C1952      C1953   1.400       .  A
C1952      H1961   1.083       .  S
C1953      C1954   1.400       .  A
C1954      H1962   1.085       .  S
C1963      C1964   1.398       .  A
C1963      C1968   1.400       .  A
C1964      C1965   1.392       .  A
C1964      H1977   1.083       .  S
C1965      C1966   1.414       .  A
C1965      H1978   1.079       .  S
C1966      C1972   1.428       .  A
C1966      C1967   1.423       .  A
C1967      C1969   1.400       .  A
C1967      C1968   1.406       .  A
C1968      H1979   1.084       .  S
C1969      C1970   1.391       .  A
C1969      H1980   1.084       .  S
C1970      C1971   1.400       .  A
C1970      H1981   1.084       .  S
C1971      C1972   1.423       .  A
C1971      C1976   1.406       .  A
C1972      C1973   1.413       .  A
C1973      C1974   1.392       .  A
C1973      H1982   1.079       .  S
C1974      C1975   1.401       .  A
C1974      H1983   1.083       .  S
C1975      C1976   1.402       .  A
C1976      H1984   1.085       .  S
C1985      C1986   1.398       .  A
C1985      C1990   1.399       .  A
C1986      C1987   1.394       .  A
C1986      H1999   1.084       .  S
C1987      C1988   1.414       .  A
C1987      H2000   1.077       .  S
C1988      C1994   1.429       .  A
C1988      C1989   1.424       .  A
C1989      C1991   1.399       .  A
C1989      C1990   1.405       .  A
C1990      H2001   1.084       .  S
C1991      C1992   1.390       .  A
C1991      H2002   1.084       .  S
C1992      C1993   1.400       .  A
C1992      H2003   1.084       .  S
C1993      C1994   1.421       .  A
C1993      C1998   1.404       .  A
C1994      C1995   1.415       .  A
C1995      C1996   1.396       .  A
C1995      H2004   1.077       .  S
C1996      C1997   1.401       .  A
C1996      H2005   1.083       .  S
C1997      C1998   1.403       .  A
C1998      H2006   1.084       .  S
C2007      C2008   1.400       .  A
C2007      C2012   1.400       .  A
C2008      C2009   1.401       .  A
C2008      H2021   1.083       .  S
C2009      C2010   1.416       .  A
C2009      H2022   1.078       .  S
C2010      C2016   1.433       .  A
C2010      C2011   1.423       .  A
C2011      C2013   1.400       .  A
C2011      C2012   1.407       .  A
C2012      H2023   1.085       .  S
C2013      C2014   1.391       .  A
C2013      H2024   1.084       .  S
C2014      C2015   1.399       .  A
C2014      H2025   1.084       .  S
C2015      C2016   1.423       .  A
C2015      C2020   1.406       .  A
C2016      C2017   1.416       .  A
C2017      C2018   1.399       .  A
C2017      H2026   1.078       .  S
C2018      C2019   1.398       .  A
C2018      H2027   1.083       .  S
C2019      C2020   1.398       .  A
C2020      H2028   1.084       .  S
C2029      C2030   1.401       .  A
C2029      C2034   1.401       .  A
C2030      C2031   1.397       .  A
C2030      H2043   1.083       .  S
C2031      C2032   1.415       .  A
C2031      H2044   1.077       .  S
C2032      C2038   1.428       .  A
C2032      C2033   1.422       .  A
C2033      C2035   1.399       .  A
C2033      C2034   1.401       .  A
C2034      H2045   1.084       .  S
C2035      C2036   1.387       .  A
C2035      H2046   1.084       .  S
C2036      C2037   1.398       .  A
C2036      H2047   1.084       .  S
C2037      C2038   1.423       .  A
C2037      C2042   1.401       .  A
C2038      C2039   1.415       .  A
C2039      C2040   1.396       .  A
C2039      H2048   1.077       .  S
C2040      C2041   1.399       .  A
C2040      H2049   1.082       .  S
C2041      C2042   1.397       .  A
C2042      H2050   1.085       .  S
C2051      C2052   1.399       .  A
C2051      C2056   1.399       .  A
C2052      C2053   1.391       .  A
C2052      H2065   1.084       .  S
C2053      C2054   1.413       .  A
C2053      H2066   1.077       .  S
C2054      C2060   1.427       .  A
C2054      C2055   1.423       .  A
C2055      C2057   1.399       .  A
C2055      C2056   1.405       .  A
C2056      H2067   1.083       .  S
C2057      C2058   1.389       .  A
C2057      H2068   1.084       .  S
C2058      C2059   1.399       .  A
C2058      H2069   1.084       .  S
C2059      C2060   1.422       .  A
C2059      C2064   1.403       .  A
C2060      C2061   1.415       .  A
C2061      C2062   1.394       .  A
C2061      H2070   1.077       .  S
C2062      C2063   1.398       .  A
C2062      H2071   1.084       .  S
C2063      C2064   1.400       .  A
C2064      H2072   1.085       .  S
C2073      C2074   1.397       .  A
C2073      C2078   1.398       .  A
C2074      C2075   1.400       .  A
C2074      H2087   1.083       .  S
C2075      C2076   1.417       .  A
C2075      H2088   1.078       .  S
C2076      C2082   1.432       .  A
C2076      C2077   1.423       .  A
C2077      C2079   1.399       .  A
C2077      C2078   1.404       .  A
C2078      H2089   1.084       .  S
C2079      C2080   1.390       .  A
C2079      H2090   1.084       .  S
C2080      C2081   1.400       .  A
C2080      H2091   1.084       .  S
C2081      C2082   1.423       .  A
C2081      C2086   1.406       .  A
C2082      C2083   1.416       .  A
C2083      C2084   1.400       .  A
C2083      H2092   1.078       .  S
C2084      C2085   1.400       .  A
C2084      H2093   1.083       .  S
C2085      C2086   1.401       .  A
C2086      H2094   1.085       .  S
C2095      C2096   1.398       .  A
C2095      C2100   1.398       .  A
C2096      C2097   1.394       .  A
C2096      H2109   1.081       .  S
C2097      C2098   1.415       .  A
C2097      H2110   1.077       .  S
C2098      C2104   1.426       .  A
C2098      C2099   1.421       .  A
C2099      C2101   1.398       .  A
C2099      C2100   1.399       .  A
C2100      H2111   1.085       .  S
C2101      C2102   1.387       .  A
C2101      H2112   1.084       .  S
C2102      C2103   1.398       .  A
C2102      H2113   1.084       .  S
C2103      C2104   1.423       .  A
C2103      C2108   1.401       .  A
C2104      C2105   1.413       .  A
C2105      C2106   1.393       .  A
C2105      H2114   1.077       .  S
C2106      C2107   1.400       .  A
C2106      H2115   1.083       .  S
C2107      C2108   1.399       .  A
C2108      H2116   1.084       .  S
C2117      C2118   1.398       .  A
C2117      C2122   1.398       .  A
C2118      C2119   1.396       .  A
C2118      H2131   1.082       .  S
C2119      C2120   1.416       .  A
C2119      H2132   1.077       .  S
C2120      C2126   1.428       .  A
C2120      C2121   1.422       .  A
C2121      C2123   1.398       .  A
C2121      C2122   1.399       .  A
C2122      H2133   1.085       .  S
C2123      C2124   1.386       .  A
C2123      H2134   1.084       .  S
C2124      C2125   1.398       .  A
C2124      H2135   1.084       .  S
C2125      C2126   1.422       .  A
C2125      C2130   1.400       .  A
C2126      C2127   1.415       .  A
C2127      C2128   1.396       .  A
C2127      H2136   1.077       .  S
C2128      C2129   1.400       .  A
C2128      H2137   1.083       .  S
C2129      C2130   1.400       .  A
C2130      H2138   1.085       .  S
C2139      C2140   1.397       .  A
C2139      C2144   1.398       .  A
C2140      C2141   1.398       .  A
C2140      H2153   1.083       .  S
C2141      C2142   1.417       .  A
C2141      H2154   1.077       .  S
C2142      C2148   1.432       .  A
C2142      C2143   1.423       .  A
C2143      C2145   1.400       .  A
C2143      C2144   1.407       .  A
C2144      H2155   1.084       .  S
C2145      C2146   1.392       .  A
C2145      H2156   1.084       .  S
C2146      C2147   1.400       .  A
C2146      H2157   1.084       .  S
C2147      C2148   1.423       .  A
C2147      C2152   1.409       .  A
C2148      C2149   1.415       .  A
C2149      C2150   1.398       .  A
C2149      H2158   1.078       .  S
C2150      C2151   1.400       .  A
C2150      H2159   1.083       .  S
C2151      C2152   1.403       .  A
C2152      H2160   1.084       .  S
C2161      C2162   1.398       .  A
C2161      C2166   1.396       .  A
C2162      C2163   1.400       .  A
C2162      H2175   1.083       .  S
C2163      C2164   1.417       .  A
C2163      H2176   1.078       .  S
C2164      C2170   1.430       .  A
C2164      C2165   1.423       .  A
C2165      C2167   1.397       .  A
C2165      C2166   1.400       .  A
C2166      H2177   1.085       .  S
C2167      C2168   1.386       .  A
C2167      H2178   1.084       .  S
C2168      C2169   1.398       .  A
C2168      H2179   1.084       .  S
C2169      C2170   1.422       .  A
C2169      C2174   1.400       .  A
C2170      C2171   1.416       .  A
C2171      C2172   1.400       .  A
C2171      H2180   1.078       .  S
C2172      C2173   1.402       .  A
C2172      H2181   1.083       .  S
C2173      C2174   1.401       .  A
C2174      H2182   1.084       .  S
C2183      C2184   1.399       .  A
C2183      C2188   1.398       .  A
C2184      C2185   1.397       .  A
C2184      H2197   1.083       .  S
C2185      C2186   1.416       .  A
C2185      H2198   1.077       .  S
C2186      C2192   1.429       .  A
C2186      C2187   1.422       .  A
C2187      C2189   1.398       .  A
C2187      C2188   1.401       .  A
C2188      H2199   1.085       .  S
C2189      C2190   1.387       .  A
C2189      H2200   1.084       .  S
C2190      C2191   1.399       .  A
C2190      H2201   1.084       .  S
C2191      C2192   1.422       .  A
C2191      C2196   1.402       .  A
C2192      C2193   1.415       .  A
C2193      C2194   1.397       .  A
C2193      H2202   1.077       .  S
C2194      C2195   1.401       .  A
C2194      H2203   1.083       .  S
C2195      C2196   1.401       .  A
C2196      H2204   1.084       .  S
C2205      C2206   1.397       .  A
C2205      C2210   1.399       .  A
C2206      C2207   1.397       .  A
C2206      H2219   1.083       .  S
C2207      C2208   1.416       .  A
C2207      H2220   1.077       .  S
C2208      C2214   1.430       .  A
C2208      C2209   1.423       .  A
C2209      C2211   1.400       .  A
C2209      C2210   1.405       .  A
C2210      H2221   1.084       .  S
C2211      C2212   1.391       .  A
C2211      H2222   1.084       .  S
C2212      C2213   1.400       .  A
C2212      H2223   1.084       .  S
C2213      C2214   1.423       .  A
C2213      C2218   1.407       .  A
C2214      C2215   1.415       .  A
C2215      C2216   1.397       .  A
C2215      H2224   1.077       .  S
C2216      C2217   1.398       .  A
C2216      H2225   1.084       .  S
C2217      C2218   1.399       .  A
C2218      H2226   1.085       .  S
C2227      C2228   1.397       .  A
C2227      C2232   1.397       .  A
C2228      C2229   1.393       .  A
C2228      H2241   1.082       .  S
C2229      C2230   1.415       .  A
C2229      H2242   1.077       .  S
C2230      C2236   1.425       .  A
C2230      C2231   1.422       .  A
C2231      C2233   1.398       .  A
C2231      C2232   1.399       .  A
C2232      H2243   1.085       .  S
C2233      C2234   1.387       .  A
C2233      H2244   1.084       .  S
C2234      C2235   1.398       .  A
C2234      H2245   1.084       .  S
C2235      C2236   1.423       .  A
C2235      C2240   1.401       .  A
C2236      C2237   1.413       .  A
C2237      C2238   1.392       .  A
C2237      H2246   1.077       .  S
C2238      C2239   1.400       .  A
C2238      H2247   1.083       .  S
C2239      C2240   1.399       .  A
C2240      H2248   1.085       .  S
C2249      C2250   1.401       .  A
C2249      C2254   1.400       .  A
C2250      C2251   1.399       .  A
C2250      H2263   1.083       .  S
C2251      C2252   1.416       .  A
C2251      H2264   1.078       .  S
C2252      C2258   1.427       .  A
C2252      C2253   1.421       .  A
C2253      C2255   1.398       .  A
C2253      C2254   1.396       .  A
C2254      H2265   1.084       .  S
C2255      C2256   1.384       .  A
C2255      H2266   1.084       .  S
C2256      C2257   1.396       .  A
C2256      H2267   1.084       .  S
C2257      C2258   1.424       .  A
C2257      C2262   1.396       .  A
C2258      C2259   1.416       .  A
C2259      C2260   1.397       .  A
C2259      H2268   1.078       .  S
C2260      C2261   1.398       .  A
C2260      H2269   1.083       .  S
C2261      C2262   1.392       .  A
C2262      H2270   1.085       .  S
C2271      C2272   1.396       .  A
C2271      C2276   1.399       .  A
C2272      C2273   1.396       .  A
C2272      H2285   1.083       .  S
C2273      C2274   1.416       .  A
C2273      H2286   1.078       .  S
C2274      C2280   1.428       .  A
C2274      C2275   1.422       .  A
C2275      C2277   1.400       .  A
C2275      C2276   1.405       .  A
C2276      H2287   1.084       .  S
C2277      C2278   1.392       .  A
C2277      H2288   1.084       .  S
C2278      C2279   1.400       .  A
C2278      H2289   1.084       .  S
C2279      C2280   1.423       .  A
C2279      C2284   1.406       .  A
C2280      C2281   1.415       .  A
C2281      C2282   1.396       .  A
C2281      H2290   1.078       .  S
C2282      C2283   1.397       .  A
C2282      H2291   1.084       .  S
C2283      C2284   1.401       .  A
C2284      H2292   1.085       .  S
C2293      C2294   1.400       .  A
C2293      C2298   1.395       .  A
C2294      C2295   1.405       .  A
C2294      H2307   1.083       .  S
C2295      C2296   1.419       .  A
C2295      H2308   1.078       .  S
C2296      C2302   1.433       .  A
C2296      C2297   1.423       .  A
C2297      C2299   1.397       .  A
C2297      C2298   1.398       .  A
C2298      H2309   1.085       .  S
C2299      C2300   1.384       .  A
C2299      H2310   1.084       .  S
C2300      C2301   1.397       .  A
C2300      H2311   1.084       .  S
C2301      C2302   1.423       .  A
C2301      C2306   1.399       .  A
C2302      C2303   1.417       .  A
C2303      C2304   1.403       .  A
C2303      H2312   1.078       .  S
C2304      C2305   1.403       .  A
C2304      H2313   1.083       .  S
C2305      C2306   1.399       .  A
C2306      H2314   1.085       .  S
C2315      C2316   1.399       .  A
C2315      C2320   1.397       .  A
C2316      C2317   1.400       .  A
C2316      H2329   1.083       .  S
C2317      C2318   1.417       .  A
C2317      H2330   1.077       .  S
C2318      C2324   1.432       .  A
C2318      C2319   1.423       .  A
C2319      C2321   1.398       .  A
C2319      C2320   1.402       .  A
C2320      H2331   1.085       .  S
C2321      C2322   1.387       .  A
C2321      H2332   1.084       .  S
C2322      C2323   1.399       .  A
C2322      H2333   1.084       .  S
C2323      C2324   1.422       .  A
C2323      C2328   1.401       .  A
C2324      C2325   1.417       .  A
C2325      C2326   1.401       .  A
C2325      H2334   1.078       .  S
C2326      C2327   1.402       .  A
C2326      H2335   1.083       .  S
C2327      C2328   1.402       .  A
C2328      H2336   1.084       .  S
C2337      C2338   1.396       .  A
C2337      C2342   1.398       .  A
C2338      C2339   1.393       .  A
C2338      H2351   1.083       .  S
C2339      C2340   1.414       .  A
C2339      H2352   1.077       .  S
C2340      C2346   1.427       .  A
C2340      C2341   1.423       .  A
C2341      C2343   1.400       .  A
C2341      C2342   1.406       .  A
C2342      H2353   1.084       .  S
C2343      C2344   1.392       .  A
C2343      H2354   1.084       .  S
C2344      C2345   1.400       .  A
C2344      H2355   1.084       .  S
C2345      C2346   1.423       .  A
C2345      C2350   1.406       .  A
C2346      C2347   1.415       .  A
C2347      C2348   1.394       .  A
C2347      H2356   1.077       .  S
C2348      C2349   1.396       .  A
C2348      H2357   1.084       .  S
C2349      C2350   1.398       .  A
C2350      H2358   1.085       .  S
C2359      C2360   1.399       .  A
C2359      C2364   1.399       .  A
C2360      C2361   1.398       .  A
C2360      H2373   1.082       .  S
C2361      C2362   1.416       .  A
C2361      H2374   1.077       .  S
C2362      C2368   1.430       .  A
C2362      C2363   1.422       .  A
C2363      C2365   1.399       .  A
C2363      C2364   1.401       .  A
C2364      H2375   1.085       .  S
C2365      C2366   1.388       .  A
C2365      H2376   1.084       .  S
C2366      C2367   1.399       .  A
C2366      H2377   1.084       .  S
C2367      C2368   1.422       .  A
C2367      C2372   1.403       .  A
C2368      C2369   1.415       .  A
C2369      C2370   1.398       .  A
C2369      H2378   1.077       .  S
C2370      C2371   1.401       .  A
C2370      H2379   1.083       .  S
C2371      C2372   1.402       .  A
C2372      H2380   1.084       .  S
C2381      C2382   1.398       .  A
C2381      C2386   1.396       .  A
C2382      C2383   1.396       .  A
C2382      H2395   1.083       .  S
C2383      C2384   1.415       .  A
C2383      H2396   1.077       .  S
C2384      C2390   1.429       .  A
C2384      C2385   1.423       .  A
C2385      C2387   1.398       .  A
C2385      C2386   1.402       .  A
C2386      H2397   1.085       .  S
C2387      C2388   1.387       .  A
C2387      H2398   1.084       .  S
C2388      C2389   1.399       .  A
C2388      H2399   1.084       .  S
C2389      C2390   1.422       .  A
C2389      C2394   1.401       .  A
C2390      C2391   1.416       .  A
C2391      C2392   1.398       .  A
C2391      H2400   1.077       .  S
C2392      C2393   1.401       .  A
C2392      H2401   1.083       .  S
C2393      C2394   1.401       .  A
C2394      H2402   1.084       .  S
C2403      C2404   1.397       .  A
C2403      C2408   1.396       .  A
C2404      C2405   1.398       .  A
C2404      H2417   1.083       .  S
C2405      C2406   1.416       .  A
C2405      H2418   1.078       .  S
C2406      C2412   1.431       .  A
C2406      C2407   1.424       .  A
C2407      C2409   1.399       .  A
C2407      C2408   1.405       .  A
C2408      H2419   1.084       .  S
C2409      C2410   1.390       .  A
C2409      H2420   1.084       .  S
C2410      C2411   1.400       .  A
C2410      H2421   1.084       .  S
C2411      C2412   1.422       .  A
C2411      C2416   1.405       .  A
C2412      C2413   1.416       .  A
C2413      C2414   1.399       .  A
C2413      H2422   1.078       .  S
C2414      C2415   1.400       .  A
C2414      H2423   1.083       .  S
C2415      C2416   1.400       .  A
C2416      H2424   1.085       .  S
C2425      C2426   1.400       .  A
C2425      C2430   1.397       .  A
C2426      C2427   1.401       .  A
C2426      H2439   1.083       .  S
C2427      C2428   1.417       .  A
C2427      H2440   1.078       .  S
C2428      C2434   1.433       .  A
C2428      C2429   1.423       .  A
C2429      C2431   1.397       .  A
C2429      C2430   1.401       .  A
C2430      H2441   1.085       .  S
C2431      C2432   1.386       .  A
C2431      H2442   1.084       .  S
C2432      C2433   1.398       .  A
C2432      H2443   1.084       .  S
C2433      C2434   1.422       .  A
C2433      C2438   1.401       .  A
C2434      C2435   1.417       .  A
C2435      C2436   1.402       .  A
C2435      H2444   1.078       .  S
C2436      C2437   1.402       .  A
C2436      H2445   1.083       .  S
C2437      C2438   1.402       .  A
C2438      H2446   1.084       .  S
C2447      C2448   1.402       .  A
C2447      C2452   1.401       .  A
C2448      C2449   1.399       .  A
C2448      H2461   1.083       .  S
C2449      C2450   1.415       .  A
C2449      H2462   1.077       .  S
C2450      C2456   1.432       .  A
C2450      C2451   1.423       .  A
C2451      C2453   1.399       .  A
C2451      C2452   1.403       .  A
C2452      H2463   1.084       .  S
C2453      C2454   1.388       .  A
C2453      H2464   1.084       .  S
C2454      C2455   1.398       .  A
C2454      H2465   1.084       .  S
C2455      C2456   1.422       .  A
C2455      C2460   1.402       .  A
C2456      C2457   1.417       .  A
C2457      C2458   1.400       .  A
C2457      H2466   1.077       .  S
C2458      C2459   1.399       .  A
C2458      H2467   1.083       .  S
C2459      C2460   1.399       .  A
C2460      H2468   1.085       .  S
C2469      C2470   1.399       .  A
C2469      C2474   1.400       .  A
C2470      C2471   1.397       .  A
C2470      H2483   1.084       .  S
C2471      C2472   1.415       .  A
C2471      H2484   1.077       .  S
C2472      C2478   1.430       .  A
C2472      C2473   1.423       .  A
C2473      C2475   1.399       .  A
C2473      C2474   1.406       .  A
C2474      H2485   1.085       .  S
C2475      C2476   1.390       .  A
C2475      H2486   1.084       .  S
C2476      C2477   1.399       .  A
C2476      H2487   1.084       .  S
C2477      C2478   1.423       .  A
C2477      C2482   1.404       .  A
C2478      C2479   1.416       .  A
C2479      C2480   1.397       .  A
C2479      H2488   1.077       .  S
C2480      C2481   1.396       .  A
C2480      H2489   1.083       .  S
C2481      C2482   1.396       .  A
C2482      H2490   1.084       .  S
C2491      C2492   1.398       .  A
C2491      C2496   1.398       .  A
C2492      C2493   1.396       .  A
C2492      H2505   1.083       .  S
C2493      C2494   1.415       .  A
C2493      H2506   1.076       .  S
C2494      C2500   1.428       .  A
C2494      C2495   1.423       .  A
C2495      C2497   1.398       .  A
C2495      C2496   1.401       .  A
C2496      H2507   1.085       .  S
C2497      C2498   1.387       .  A
C2497      H2508   1.084       .  S
C2498      C2499   1.399       .  A
C2498      H2509   1.084       .  S
C2499      C2500   1.421       .  A
C2499      C2504   1.400       .  A
C2500      C2501   1.416       .  A
C2501      C2502   1.397       .  A
C2501      H2510   1.076       .  S
C2502      C2503   1.400       .  A
C2502      H2511   1.083       .  S
C2503      C2504   1.402       .  A
C2504      H2512   1.084       .  S
C2513      C2514   1.401       .  A
C2513      C2518   1.403       .  A
C2514      C2515   1.398       .  A
C2514      H2527   1.083       .  S
C2515      C2516   1.415       .  A
C2515      H2528   1.078       .  S
C2516      C2522   1.429       .  A
C2516      C2517   1.422       .  A
C2517      C2519   1.399       .  A
C2517      C2518   1.402       .  A
C2518      H2529   1.084       .  S
C2519      C2520   1.388       .  A
C2519      H2530   1.084       .  S
C2520      C2521   1.398       .  A
C2520      H2531   1.084       .  S
C2521      C2522   1.422       .  A
C2521      C2526   1.401       .  A
C2522      C2523   1.416       .  A
C2523      C2524   1.398       .  A
C2523      H2532   1.078       .  S
C2524      C2525   1.397       .  A
C2524      H2533   1.083       .  S
C2525      C2526   1.397       .  A
C2526      H2534   1.085       .  S
C2535      C2536   1.398       .  A
C2535      C2540   1.398       .  A
C2536      C2537   1.398       .  A
C2536      H2549   1.083       .  S
C2537      C2538   1.416       .  A
C2537      H2550   1.078       .  S
C2538      C2544   1.432       .  A
C2538      C2539   1.423       .  A
C2539      C2541   1.399       .  A
C2539      C2540   1.405       .  A
C2540      H2551   1.084       .  S
C2541      C2542   1.390       .  A
C2541      H2552   1.084       .  S
C2542      C2543   1.399       .  A
C2542      H2553   1.084       .  S
C2543      C2544   1.423       .  A
C2543      C2548   1.405       .  A
C2544      C2545   1.417       .  A
C2545      C2546   1.400       .  A
C2545      H2554   1.078       .  S
C2546      C2547   1.399       .  A
C2546      H2555   1.084       .  S
C2547      C2548   1.399       .  A
C2548      H2556   1.085       .  S
C2557      C2558   1.401       .  A
C2557      C2562   1.400       .  A
C2558      C2559   1.396       .  A
C2558      H2571   1.083       .  S
C2559      C2560   1.414       .  A
C2559      H2572   1.078       .  S
C2560      C2566   1.429       .  A
C2560      C2561   1.423       .  A
C2561      C2563   1.398       .  A
C2561      C2562   1.402       .  A
C2562      H2573   1.085       .  S
C2563      C2564   1.387       .  A
C2563      H2574   1.084       .  S
C2564      C2565   1.399       .  A
C2564      H2575   1.084       .  S
C2565      C2566   1.421       .  A
C2565      C2570   1.400       .  A
C2566      C2567   1.416       .  A
C2567      C2568   1.398       .  A
C2567      H2576   1.078       .  S
C2568      C2569   1.399       .  A
C2568      H2577   1.082       .  S
C2569      C2570   1.399       .  A
C2570      H2578   1.085       .  S
C2579      C2580   1.395       .  A
C2579      C2584   1.399       .  A
C2580      C2581   1.392       .  A
C2580      H2593   1.084       .  S
C2581      C2582   1.415       .  A
C2581      H2594   1.076       .  S
C2582      C2588   1.426       .  A
C2582      C2583   1.422       .  A
C2583      C2585   1.400       .  A
C2583      C2584   1.405       .  A
C2584      H2595   1.084       .  S
C2585      C2586   1.391       .  A
C2585      H2596   1.084       .  S
C2586      C2587   1.400       .  A
C2586      H2597   1.084       .  S
C2587      C2588   1.423       .  A
C2587      C2592   1.407       .  A
C2588      C2589   1.412       .  A
C2589      C2590   1.390       .  A
C2589      H2598   1.077       .  S
C2590      C2591   1.401       .  A
C2590      H2599   1.083       .  S
C2591      C2592   1.403       .  A
C2592      H2600   1.084       .  S
C2601      C2602   1.398       .  A
C2601      C2606   1.400       .  A
C2602      C2603   1.398       .  A
C2602      H2615   1.084       .  S
C2603      C2604   1.416       .  A
C2603      H2616   1.078       .  S
C2604      C2610   1.430       .  A
C2604      C2605   1.422       .  A
C2605      C2607   1.400       .  A
C2605      C2606   1.406       .  A
C2606      H2617   1.085       .  S
C2607      C2608   1.391       .  A
C2607      H2618   1.084       .  S
C2608      C2609   1.399       .  A
C2608      H2619   1.084       .  S
C2609      C2610   1.424       .  A
C2609      C2614   1.406       .  A
C2610      C2611   1.415       .  A
C2611      C2612   1.397       .  A
C2611      H2620   1.078       .  S
C2612      C2613   1.397       .  A
C2612      H2621   1.083       .  S
C2613      C2614   1.398       .  A
C2614      H2622   1.084       .  S
C2623      C2624   1.397       .  A
C2623      C2628   1.398       .  A
C2624      C2625   1.396       .  A
C2624      H2637   1.082       .  S
C2625      C2626   1.416       .  A
C2625      H2638   1.077       .  S
C2626      C2632   1.428       .  A
C2626      C2627   1.422       .  A
C2627      C2629   1.399       .  A
C2627      C2628   1.401       .  A
C2628      H2639   1.085       .  S
C2629      C2630   1.388       .  A
C2629      H2640   1.084       .  S
C2630      C2631   1.399       .  A
C2630      H2641   1.084       .  S
C2631      C2632   1.422       .  A
C2631      C2636   1.403       .  A
C2632      C2633   1.414       .  A
C2633      C2634   1.396       .  A
C2633      H2642   1.077       .  S
C2634      C2635   1.401       .  A
C2634      H2643   1.083       .  S
C2635      C2636   1.402       .  A
C2636      H2644   1.084       .  S
C2645      C2646   1.398       .  A
C2645      C2650   1.397       .  A
C2646      C2647   1.396       .  A
C2646      H2659   1.082       .  S
C2647      C2648   1.415       .  A
C2647      H2660   1.077       .  S
C2648      C2654   1.428       .  A
C2648      C2649   1.423       .  A
C2649      C2651   1.398       .  A
C2649      C2650   1.400       .  A
C2650      H2661   1.085       .  S
C2651      C2652   1.386       .  A
C2651      H2662   1.084       .  S
C2652      C2653   1.399       .  A
C2652      H2663   1.084       .  S
C2653      C2654   1.421       .  A
C2653      C2658   1.398       .  A
C2654      C2655   1.416       .  A
C2655      C2656   1.398       .  A
C2655      H2664   1.077       .  S
C2656      C2657   1.400       .  A
C2656      H2665   1.083       .  S
C2657      C2658   1.402       .  A
C2658      H2666   1.084       .  S
C2667      C2668   1.396       .  A
C2667      C2672   1.399       .  A
C2668      C2669   1.397       .  A
C2668      H2681   1.083       .  S
C2669      C2670   1.416       .  A
C2669      H2682   1.077       .  S
C2670      C2676   1.431       .  A
C2670      C2671   1.423       .  A
C2671      C2673   1.400       .  A
C2671      C2672   1.407       .  A
C2672      H2683   1.084       .  S
C2673      C2674   1.392       .  A
C2673      H2684   1.084       .  S
C2674      C2675   1.400       .  A
C2674      H2685   1.084       .  S
C2675      C2676   1.423       .  A
C2675      C2680   1.408       .  A
C2676      C2677   1.415       .  A
C2677      C2678   1.396       .  A
C2677      H2686   1.077       .  S
C2678      C2679   1.398       .  A
C2678      H2687   1.084       .  S
C2679      C2680   1.400       .  A
C2680      H2688   1.085       .  S
C2689      C2690   1.401       .  A
C2689      C2694   1.401       .  A
C2690      C2691   1.397       .  A
C2690      H2703   1.083       .  S
C2691      C2692   1.415       .  A
C2691      H2704   1.077       .  S
C2692      C2698   1.428       .  A
C2692      C2693   1.422       .  A
C2693      C2695   1.398       .  A
C2693      C2694   1.401       .  A
C2694      H2705   1.084       .  S
C2695      C2696   1.387       .  A
C2695      H2706   1.084       .  S
C2696      C2697   1.398       .  A
C2696      H2707   1.084       .  S
C2697      C2698   1.422       .  A
C2697      C2702   1.400       .  A
C2698      C2699   1.416       .  A
C2699      C2700   1.397       .  A
C2699      H2708   1.077       .  S
C2700      C2701   1.398       .  A
C2700      H2709   1.082       .  S
C2701      C2702   1.397       .  A
C2702      H2710   1.085       .  S
C2711      C2712   1.400       .  A
C2711      C2716   1.402       .  A
C2712      C2713   1.393       .  A
C2712      H2725   1.083       .  S
C2713      C2714   1.414       .  A
C2713      H2726   1.076       .  S
C2714      C2720   1.427       .  A
C2714      C2715   1.422       .  A
C2715      C2717   1.400       .  A
C2715      C2716   1.404       .  A
C2716      H2727   1.084       .  S
C2717      C2718   1.390       .  A
C2717      H2728   1.084       .  S
C2718      C2719   1.399       .  A
C2718      H2729   1.084       .  S
C2719      C2720   1.423       .  A
C2719      C2724   1.405       .  A
C2720      C2721   1.413       .  A
C2721      C2722   1.391       .  A
C2721      H2730   1.076       .  S
C2722      C2723   1.397       .  A
C2722      H2731   1.084       .  S
C2723      C2724   1.399       .  A
C2724      H2732   1.083       .  S
C2733      C2734   1.398       .  A
C2733      C2738   1.396       .  A
C2734      C2735   1.401       .  A
C2734      H2747   1.083       .  S
C2735      C2736   1.417       .  A
C2735      H2748   1.078       .  S
C2736      C2742   1.433       .  A
C2736      C2737   1.424       .  A
C2737      C2739   1.398       .  A
C2737      C2738   1.404       .  A
C2738      H2749   1.084       .  S
C2739      C2740   1.388       .  A
C2739      H2750   1.084       .  S
C2740      C2741   1.399       .  A
C2740      H2751   1.084       .  S
C2741      C2742   1.423       .  A
C2741      C2746   1.404       .  A
C2742      C2743   1.417       .  A
C2743      C2744   1.403       .  A
C2743      H2752   1.078       .  S
C2744      C2745   1.401       .  A
C2744      H2753   1.083       .  S
C2745      C2746   1.399       .  A
C2746      H2754   1.085       .  S
C2755      C2756   1.398       .  A
C2755      C2760   1.395       .  A
C2756      C2757   1.398       .  A
C2756      H2769   1.082       .  S
C2757      C2758   1.416       .  A
C2757      H2770   1.077       .  S
C2758      C2764   1.429       .  A
C2758      C2759   1.423       .  A
C2759      C2761   1.397       .  A
C2759      C2760   1.400       .  A
C2760      H2771   1.085       .  S
C2761      C2762   1.386       .  A
C2761      H2772   1.084       .  S
C2762      C2763   1.398       .  A
C2762      H2773   1.084       .  S
C2763      C2764   1.422       .  A
C2763      C2768   1.400       .  A
C2764      C2765   1.415       .  A
C2765      C2766   1.398       .  A
C2765      H2774   1.077       .  S
C2766      C2767   1.401       .  A
C2766      H2775   1.083       .  S
C2767      C2768   1.401       .  A
C2768      H2776   1.084       .  S
C2777      C2778   1.401       .  A
C2777      C2782   1.401       .  A
C2778      C2779   1.397       .  A
C2778      H2791   1.083       .  S
C2779      C2780   1.415       .  A
C2779      H2792   1.078       .  S
C2780      C2786   1.429       .  A
C2780      C2781   1.422       .  A
C2781      C2783   1.399       .  A
C2781      C2782   1.401       .  A
C2782      H2793   1.085       .  S
C2783      C2784   1.387       .  A
C2783      H2794   1.084       .  S
C2784      C2785   1.397       .  A
C2784      H2795   1.084       .  S
C2785      C2786   1.423       .  A
C2785      C2790   1.400       .  A
C2786      C2787   1.416       .  A
C2787      C2788   1.397       .  A
C2787      H2796   1.078       .  S
C2788      C2789   1.398       .  A
C2788      H2797   1.082       .  S
C2789      C2790   1.395       .  A
C2790      H2798   1.085       .  S
C2799      C2800   1.396       .  A
C2799      C2804   1.394       .  A
C2800      C2801   1.397       .  A
C2800      H2813   1.083       .  S
C2801      C2802   1.416       .  A
C2801      H2814   1.078       .  S
C2802      C2808   1.429       .  A
C2802      C2803   1.423       .  A
C2803      C2805   1.398       .  A
C2803      C2804   1.402       .  A
C2804      H2815   1.084       .  S
C2805      C2806   1.388       .  A
C2805      H2816   1.084       .  S
C2806      C2807   1.399       .  A
C2806      H2817   1.084       .  S
C2807      C2808   1.422       .  A
C2807      C2812   1.402       .  A
C2808      C2809   1.415       .  A
C2809      C2810   1.398       .  A
C2809      H2818   1.078       .  S
C2810      C2811   1.400       .  A
C2810      H2819   1.083       .  S
C2811      C2812   1.399       .  A
C2812      H2820   1.085       .  S
C2821      C2822   1.398       .  A
C2821      C2826   1.395       .  A
C2822      C2823   1.395       .  A
C2822      H2835   1.083       .  S
C2823      C2824   1.415       .  A
C2823      H2836   1.077       .  S
C2824      C2830   1.427       .  A
C2824      C2825   1.423       .  A
C2825      C2827   1.397       .  A
C2825      C2826   1.398       .  A
C2826      H2837   1.085       .  S
C2827      C2828   1.385       .  A
C2827      H2838   1.084       .  S
C2828      C2829   1.398       .  A
C2828      H2839   1.084       .  S
C2829      C2830   1.421       .  A
C2829      C2834   1.397       .  A
C2830      C2831   1.416       .  A
C2831      C2832   1.397       .  A
C2831      H2840   1.077       .  S
C2832      C2833   1.399       .  A
C2832      H2841   1.083       .  S
C2833      C2834   1.401       .  A
C2834      H2842   1.085       .  S
C2843      C2844   1.398       .  A
C2843      C2848   1.395       .  A
C2844      C2845   1.396       .  A
C2844      H2857   1.083       .  S
C2845      C2846   1.415       .  A
C2845      H2858   1.077       .  S
C2846      C2852   1.427       .  A
C2846      C2847   1.423       .  A
C2847      C2849   1.397       .  A
C2847      C2848   1.398       .  A
C2848      H2859   1.085       .  S
C2849      C2850   1.385       .  A
C2849      H2860   1.084       .  S
C2850      C2851   1.398       .  A
C2850      H2861   1.084       .  S
C2851      C2852   1.421       .  A
C2851      C2856   1.397       .  A
C2852      C2853   1.416       .  A
C2853      C2854   1.398       .  A
C2853      H2862   1.077       .  S
C2854      C2855   1.399       .  A
C2854      H2863   1.083       .  S
C2855      C2856   1.400       .  A
C2856      H2864   1.085       .  S
C2865      C2866   1.397       .  A
C2865      C2870   1.398       .  A
C2866      C2867   1.397       .  A
C2866      H2879   1.083       .  S
C2867      C2868   1.416       .  A
C2867      H2880   1.078       .  S
C2868      C2874   1.429       .  A
C2868      C2869   1.423       .  A
C2869      C2871   1.399       .  A
C2869      C2870   1.404       .  A
C2870      H2881   1.084       .  S
C2871      C2872   1.390       .  A
C2871      H2882   1.084       .  S
C2872      C2873   1.399       .  A
C2872      H2883   1.084       .  S
C2873      C2874   1.422       .  A
C2873      C2878   1.404       .  A
C2874      C2875   1.416       .  A
C2875      C2876   1.398       .  A
C2875      H2884   1.078       .  S
C2876      C2877   1.398       .  A
C2876      H2885   1.084       .  S
C2877      C2878   1.399       .  A
C2878      H2886   1.085       .  S
C2887      C2888   1.398       .  A
C2887      C2892   1.399       .  A
C2888      C2889   1.397       .  A
C2888      H2901   1.083       .  S
C2889      C2890   1.416       .  A
C2889      H2902   1.077       .  S
C2890      C2896   1.430       .  A
C2890      C2891   1.422       .  A
C2891      C2893   1.399       .  A
C2891      C2892   1.403       .  A
C2892      H2903   1.085       .  S
C2893      C2894   1.389       .  A
C2893      H2904   1.084       .  S
C2894      C2895   1.399       .  A
C2894      H2905   1.084       .  S
C2895      C2896   1.422       .  A
C2895      C2900   1.404       .  A
C2896      C2897   1.415       .  A
C2897      C2898   1.397       .  A
C2897      H2906   1.077       .  S
C2898      C2899   1.402       .  A
C2898      H2907   1.083       .  S
C2899      C2900   1.403       .  A
C2900      H2908   1.084       .  S
C2909      C2910   1.397       .  A
C2909      C2914   1.400       .  A
C2910      C2911   1.391       .  A
C2910      H2923   1.084       .  S
C2911      C2912   1.414       .  A
C2911      H2924   1.076       .  S
C2912      C2918   1.427       .  A
C2912      C2913   1.423       .  A
C2913      C2915   1.400       .  A
C2913      C2914   1.407       .  A
C2914      H2925   1.084       .  S
C2915      C2916   1.392       .  A
C2915      H2926   1.084       .  S
C2916      C2917   1.400       .  A
C2916      H2927   1.084       .  S
C2917      C2918   1.422       .  A
C2917      C2922   1.407       .  A
C2918      C2919   1.413       .  A
C2919      C2920   1.391       .  A
C2919      H2928   1.076       .  S
C2920      C2921   1.399       .  A
C2920      H2929   1.083       .  S
C2921      C2922   1.402       .  A
C2922      H2930   1.084       .  S
C2931      C2932   1.396       .  A
C2931      C2936   1.399       .  A
C2932      C2933   1.396       .  A
C2932      H2945   1.083       .  S
C2933      C2934   1.416       .  A
C2933      H2946   1.077       .  S
C2934      C2940   1.430       .  A
C2934      C2935   1.423       .  A
C2935      C2937   1.400       .  A
C2935      C2936   1.407       .  A
C2936      H2947   1.084       .  S
C2937      C2938   1.393       .  A
C2937      H2948   1.084       .  S
C2938      C2939   1.400       .  A
C2938      H2949   1.084       .  S
C2939      C2940   1.423       .  A
C2939      C2944   1.409       .  A
C2940      C2941   1.414       .  A
C2941      C2942   1.396       .  A
C2941      H2950   1.078       .  S
C2942      C2943   1.399       .  A
C2942      H2951   1.084       .  S
C2943      C2944   1.401       .  A
C2944      H2952   1.085       .  S
C2953      C2954   1.395       .  A
C2953      C2958   1.399       .  A
C2954      C2955   1.390       .  A
C2954      H2967   1.084       .  S
C2955      C2956   1.414       .  A
C2955      H2968   1.077       .  S
C2956      C2962   1.425       .  A
C2956      C2957   1.422       .  A
C2957      C2959   1.400       .  A
C2957      C2958   1.405       .  A
C2958      H2969   1.084       .  S
C2959      C2960   1.392       .  A
C2959      H2970   1.084       .  S
C2960      C2961   1.400       .  A
C2960      H2971   1.084       .  S
C2961      C2962   1.422       .  A
C2961      C2966   1.407       .  A
C2962      C2963   1.411       .  A
C2963      C2964   1.389       .  A
C2963      H2972   1.077       .  S
C2964      C2965   1.401       .  A
C2964      H2973   1.083       .  S
C2965      C2966   1.403       .  A
C2966      H2974   1.084       .  S
C2975      C2976   1.397       .  A
C2975      C2980   1.396       .  A
C2976      C2977   1.396       .  A
C2976      H2989   1.082       .  S
C2977      C2978   1.415       .  A
C2977      H2990   1.077       .  S
C2978      C2984   1.427       .  A
C2978      C2979   1.423       .  A
C2979      C2981   1.397       .  A
C2979      C2980   1.399       .  A
C2980      H2991   1.085       .  S
C2981      C2982   1.386       .  A
C2981      H2992   1.084       .  S
C2982      C2983   1.399       .  A
C2982      H2993   1.084       .  S
C2983      C2984   1.421       .  A
C2983      C2988   1.398       .  A
C2984      C2985   1.416       .  A
C2985      C2986   1.397       .  A
C2985      H2994   1.077       .  S
C2986      C2987   1.400       .  A
C2986      H2995   1.083       .  S
C2987      C2988   1.401       .  A
C2988      H2996   1.084       .  S
C2997      C2998   1.396       .  A
C2997      C3002   1.396       .  A
C2998      C2999   1.399       .  A
C2998      H3011   1.083       .  S
C2999      C3000   1.417       .  A
C2999      H3012   1.077       .  S
C3000      C3006   1.432       .  A
C3000      C3001   1.424       .  A
C3001      C3003   1.399       .  A
C3001      C3002   1.405       .  A
C3002      H3013   1.084       .  S
C3003      C3004   1.390       .  A
C3003      H3014   1.084       .  S
C3004      C3005   1.399       .  A
C3004      H3015   1.084       .  S
C3005      C3006   1.423       .  A
C3005      C3010   1.406       .  A
C3006      C3007   1.415       .  A
C3007      C3008   1.399       .  A
C3007      H3016   1.078       .  S
C3008      C3009   1.400       .  A
C3008      H3017   1.083       .  S
C3009      C3010   1.401       .  A
C3010      H3018   1.085       .  S
C3019      C3020   1.399       .  A
C3019      C3024   1.402       .  A
C3020      C3021   1.391       .  A
C3020      H3033   1.083       .  S
C3021      C3022   1.414       .  A
C3021      H3034   1.076       .  S
C3022      C3028   1.426       .  A
C3022      C3023   1.422       .  A
C3023      C3025   1.400       .  A
C3023      C3024   1.405       .  A
C3024      H3035   1.084       .  S
C3025      C3026   1.391       .  A
C3025      H3036   1.084       .  S
C3026      C3027   1.400       .  A
C3026      H3037   1.084       .  S
C3027      C3028   1.423       .  A
C3027      C3032   1.406       .  A
C3028      C3029   1.414       .  A
C3029      C3030   1.390       .  A
C3029      H3038   1.076       .  S
C3030      C3031   1.396       .  A
C3030      H3039   1.084       .  S
C3031      C3032   1.400       .  A
C3032      H3040   1.084       .  S
C3041      C3042   1.399       .  A
C3041      C3046   1.399       .  A
C3042      C3043   1.397       .  A
C3042      H3055   1.082       .  S
C3043      C3044   1.416       .  A
C3043      H3056   1.077       .  S
C3044      C3050   1.429       .  A
C3044      C3045   1.422       .  A
C3045      C3047   1.398       .  A
C3045      C3046   1.401       .  A
C3046      H3057   1.085       .  S
C3047      C3048   1.388       .  A
C3047      H3058   1.084       .  S
C3048      C3049   1.399       .  A
C3048      H3059   1.084       .  S
C3049      C3050   1.422       .  A
C3049      C3054   1.402       .  A
C3050      C3051   1.415       .  A
C3051      C3052   1.397       .  A
C3051      H3060   1.077       .  S
C3052      C3053   1.401       .  A
C3052      H3061   1.083       .  S
C3053      C3054   1.401       .  A
C3054      H3062   1.084       .  S
C3063      C3064   1.397       .  A
C3063      C3068   1.398       .  A
C3064      C3065   1.396       .  A
C3064      H3077   1.083       .  S
C3065      C3066   1.416       .  A
C3065      H3078   1.077       .  S
C3066      C3072   1.429       .  A
C3066      C3067   1.423       .  A
C3067      C3069   1.399       .  A
C3067      C3068   1.404       .  A
C3068      H3079   1.084       .  S
C3069      C3070   1.390       .  A
C3069      H3080   1.084       .  S
C3070      C3071   1.399       .  A
C3070      H3081   1.084       .  S
C3071      C3072   1.423       .  A
C3071      C3076   1.405       .  A
C3072      C3073   1.415       .  A
C3073      C3074   1.396       .  A
C3073      H3082   1.077       .  S
C3074      C3075   1.397       .  A
C3074      H3083   1.084       .  S
C3075      C3076   1.399       .  A
C3076      H3084   1.085       .  S
C3085      C3086   1.399       .  A
C3085      C3090   1.399       .  A
C3086      C3087   1.398       .  A
C3086      H3099   1.081       .  S
C3087      C3088   1.416       .  A
C3087      H3100   1.077       .  S
C3088      C3094   1.431       .  A
C3088      C3089   1.422       .  A
C3089      C3091   1.399       .  A
C3089      C3090   1.403       .  A
C3090      H3101   1.085       .  S
C3091      C3092   1.388       .  A
C3091      H3102   1.084       .  S
C3092      C3093   1.399       .  A
C3092      H3103   1.084       .  S
C3093      C3094   1.423       .  A
C3093      C3098   1.404       .  A
C3094      C3095   1.415       .  A
C3095      C3096   1.397       .  A
C3095      H3104   1.077       .  S
C3096      C3097   1.401       .  A
C3096      H3105   1.083       .  S
C3097      C3098   1.402       .  A
C3098      H3106   1.084       .  S
C3107      C3108   1.399       .  A
C3107      C3112   1.399       .  A
C3108      C3109   1.398       .  A
C3108      H3121   1.082       .  S
C3109      C3110   1.416       .  A
C3109      H3122   1.077       .  S
C3110      C3116   1.430       .  A
C3110      C3111   1.422       .  A
C3111      C3113   1.399       .  A
C3111      C3112   1.402       .  A
C3112      H3123   1.085       .  S
C3113      C3114   1.388       .  A
C3113      H3124   1.084       .  S
C3114      C3115   1.399       .  A
C3114      H3125   1.084       .  S
C3115      C3116   1.423       .  A
C3115      C3120   1.403       .  A
C3116      C3117   1.415       .  A
C3117      C3118   1.398       .  A
C3117      H3126   1.077       .  S
C3118      C3119   1.401       .  A
C3118      H3127   1.083       .  S
C3119      C3120   1.401       .  A
C3120      H3128   1.084       .  S
C3129      C3130   1.395       .  A
C3129      C3134   1.397       .  A
C3130      C3131   1.395       .  A
C3130      H3143   1.083       .  S
C3131      C3132   1.415       .  A
C3131      H3144   1.077       .  S
C3132      C3138   1.428       .  A
C3132      C3133   1.423       .  A
C3133      C3135   1.399       .  A
C3133      C3134   1.405       .  A
C3134      H3145   1.084       .  S
C3135      C3136   1.391       .  A
C3135      H3146   1.084       .  S
C3136      C3137   1.400       .  A
C3136      H3147   1.084       .  S
C3137      C3138   1.422       .  A
C3137      C3142   1.405       .  A
C3138      C3139   1.415       .  A
C3139      C3140   1.396       .  A
C3139      H3148   1.078       .  S
C3140      C3141   1.400       .  A
C3140      H3149   1.083       .  S
C3141      C3142   1.401       .  A
C3142      H3150   1.085       .  S
C3151      C3152   1.398       .  A
C3151      C3156   1.399       .  A
C3152      C3153   1.395       .  A
C3152      H3165   1.082       .  S
C3153      C3154   1.415       .  A
C3153      H3166   1.077       .  S
C3154      C3160   1.428       .  A
C3154      C3155   1.422       .  A
C3155      C3157   1.399       .  A
C3155      C3156   1.402       .  A
C3156      H3167   1.085       .  S
C3157      C3158   1.389       .  A
C3157      H3168   1.084       .  S
C3158      C3159   1.400       .  A
C3158      H3169   1.084       .  S
C3159      C3160   1.422       .  A
C3159      C3164   1.403       .  A
C3160      C3161   1.414       .  A
C3161      C3162   1.395       .  A
C3161      H3170   1.077       .  S
C3162      C3163   1.400       .  A
C3162      H3171   1.083       .  S
C3163      C3164   1.403       .  A
C3164      H3172   1.084       .  S
C3173      C3174   1.398       .  A
C3173      C3178   1.397       .  A
C3174      C3175   1.396       .  A
C3174      H3187   1.082       .  S
C3175      C3176   1.416       .  A
C3175      H3188   1.077       .  S
C3176      C3182   1.428       .  A
C3176      C3177   1.422       .  A
C3177      C3179   1.398       .  A
C3177      C3178   1.400       .  A
C3178      H3189   1.085       .  S
C3179      C3180   1.387       .  A
C3179      H3190   1.084       .  S
C3180      C3181   1.398       .  A
C3180      H3191   1.084       .  S
C3181      C3182   1.422       .  A
C3181      C3186   1.400       .  A
C3182      C3183   1.415       .  A
C3183      C3184   1.396       .  A
C3183      H3192   1.077       .  S
C3184      C3185   1.400       .  A
C3184      H3193   1.083       .  S
C3185      C3186   1.400       .  A
C3186      H3194   1.085       .  S
C3195      C3196   1.396       .  A
C3195      C3200   1.398       .  A
C3196      C3197   1.397       .  A
C3196      H3209   1.083       .  S
C3197      C3198   1.416       .  A
C3197      H3210   1.077       .  S
C3198      C3204   1.431       .  A
C3198      C3199   1.423       .  A
C3199      C3201   1.400       .  A
C3199      C3200   1.406       .  A
C3200      H3211   1.084       .  S
C3201      C3202   1.392       .  A
C3201      H3212   1.084       .  S
C3202      C3203   1.400       .  A
C3202      H3213   1.084       .  S
C3203      C3204   1.423       .  A
C3203      C3208   1.408       .  A
C3204      C3205   1.415       .  A
C3205      C3206   1.397       .  A
C3205      H3214   1.078       .  S
C3206      C3207   1.400       .  A
C3206      H3215   1.083       .  S
C3207      C3208   1.402       .  A
C3208      H3216   1.085       .  S
C3217      C3218   1.399       .  A
C3217      C3222   1.398       .  A
C3218      C3219   1.397       .  A
C3218      H3231   1.082       .  S
C3219      C3220   1.416       .  A
C3219      H3232   1.078       .  S
C3220      C3226   1.429       .  A
C3220      C3221   1.422       .  A
C3221      C3223   1.398       .  A
C3221      C3222   1.400       .  A
C3222      H3233   1.085       .  S
C3223      C3224   1.387       .  A
C3223      H3234   1.084       .  S
C3224      C3225   1.398       .  A
C3224      H3235   1.084       .  S
C3225      C3226   1.423       .  A
C3225      C3230   1.401       .  A
C3226      C3227   1.415       .  A
C3227      C3228   1.397       .  A
C3227      H3236   1.078       .  S
C3228      C3229   1.401       .  A
C3228      H3237   1.083       .  S
C3229      C3230   1.400       .  A
C3230      H3238   1.085       .  S
C3239      C3240   1.401       .  A
C3239      C3244   1.400       .  A
C3240      C3241   1.392       .  A
C3240      H3253   1.083       .  S
C3241      C3242   1.412       .  A
C3241      H3254   1.077       .  S
C3242      C3248   1.426       .  A
C3242      C3243   1.423       .  A
C3243      C3245   1.399       .  A
C3243      C3244   1.404       .  A
C3244      H3255   1.084       .  S
C3245      C3246   1.389       .  A
C3245      H3256   1.084       .  S
C3246      C3247   1.399       .  A
C3246      H3257   1.084       .  S
C3247      C3248   1.422       .  A
C3247      C3252   1.401       .  A
C3248      C3249   1.415       .  A
C3249      C3250   1.393       .  A
C3249      H3258   1.077       .  S
C3250      C3251   1.397       .  A
C3250      H3259   1.084       .  S
C3251      C3252   1.399       .  A
C3252      H3260   1.084       .  S
C3261      C3262   1.397       .  A
C3261      C3266   1.399       .  A
C3262      C3263   1.395       .  A
C3262      H3275   1.083       .  S
C3263      C3264   1.415       .  A
C3263      H3276   1.077       .  S
C3264      C3270   1.431       .  A
C3264      C3265   1.424       .  A
C3265      C3267   1.400       .  A
C3265      C3266   1.407       .  A
C3266      H3277   1.084       .  S
C3267      C3268   1.392       .  A
C3267      H3278   1.084       .  S
C3268      C3269   1.400       .  A
C3268      H3279   1.084       .  S
C3269      C3270   1.423       .  A
C3269      C3274   1.407       .  A
C3270      C3271   1.416       .  A
C3271      C3272   1.397       .  A
C3271      H3280   1.077       .  S
C3272      C3273   1.398       .  A
C3272      H3281   1.084       .  S
C3273      C3274   1.400       .  A
C3274      H3282   1.085       .  S
C3283      C3284   1.401       .  A
C3283      C3288   1.398       .  A
C3284      C3285   1.399       .  A
C3284      H3297   1.082       .  S
C3285      C3286   1.416       .  A
C3285      H3298   1.078       .  S
C3286      C3292   1.431       .  A
C3286      C3287   1.423       .  A
C3287      C3289   1.398       .  A
C3287      C3288   1.400       .  A
C3288      H3299   1.085       .  S
C3289      C3290   1.386       .  A
C3289      H3300   1.084       .  S
C3290      C3291   1.398       .  A
C3290      H3301   1.084       .  S
C3291      C3292   1.422       .  A
C3291      C3296   1.399       .  A
C3292      C3293   1.417       .  A
C3293      C3294   1.400       .  A
C3293      H3302   1.078       .  S
C3294      C3295   1.401       .  A
C3294      H3303   1.083       .  S
C3295      C3296   1.400       .  A
C3296      H3304   1.085       .  S
C3305      C3306   1.399       .  A
C3305      C3310   1.399       .  A
C3306      C3307   1.397       .  A
C3306      H3319   1.082       .  S
C3307      C3308   1.416       .  A
C3307      H3320   1.077       .  S
C3308      C3314   1.429       .  A
C3308      C3309   1.422       .  A
C3309      C3311   1.399       .  A
C3309      C3310   1.401       .  A
C3310      H3321   1.085       .  S
C3311      C3312   1.388       .  A
C3311      H3322   1.084       .  S
C3312      C3313   1.398       .  A
C3312      H3323   1.084       .  S
C3313      C3314   1.423       .  A
C3313      C3318   1.403       .  A
C3314      C3315   1.414       .  A
C3315      C3316   1.396       .  A
C3315      H3324   1.077       .  S
C3316      C3317   1.402       .  A
C3316      H3325   1.083       .  S
C3317      C3318   1.400       .  A
C3318      H3326   1.084       .  S
C3327      C3328   1.397       .  A
C3327      C3332   1.398       .  A
C3328      C3329   1.396       .  A
C3328      H3341   1.083       .  S
C3329      C3330   1.416       .  A
C3329      H3342   1.077       .  S
C3330      C3336   1.429       .  A
C3330      C3331   1.423       .  A
C3331      C3333   1.399       .  A
C3331      C3332   1.404       .  A
C3332      H3343   1.084       .  S
C3333      C3334   1.390       .  A
C3333      H3344   1.084       .  S
C3334      C3335   1.399       .  A
C3334      H3345   1.084       .  S
C3335      C3336   1.424       .  A
C3335      C3340   1.406       .  A
C3336      C3337   1.415       .  A
C3337      C3338   1.396       .  A
C3337      H3346   1.077       .  S
C3338      C3339   1.397       .  A
C3338      H3347   1.084       .  S
C3339      C3340   1.398       .  A
C3340      H3348   1.085       .  S
C3349      C3350   1.401       .  A
C3349      C3354   1.400       .  A
C3350      C3351   1.399       .  A
C3350      H3363   1.083       .  S
C3351      C3352   1.416       .  A
C3351      H3364   1.078       .  S
C3352      C3358   1.428       .  A
C3352      C3353   1.421       .  A
C3353      C3355   1.398       .  A
C3353      C3354   1.397       .  A
C3354      H3365   1.084       .  S
C3355      C3356   1.385       .  A
C3355      H3366   1.084       .  S
C3356      C3357   1.397       .  A
C3356      H3367   1.084       .  S
C3357      C3358   1.423       .  A
C3357      C3362   1.398       .  A
C3358      C3359   1.416       .  A
C3359      C3360   1.397       .  A
C3359      H3368   1.078       .  S
C3360      C3361   1.398       .  A
C3360      H3369   1.083       .  S
C3361      C3362   1.394       .  A
C3362      H3370   1.085       .  S
C3371      C3372   1.396       .  A
C3371      C3376   1.398       .  A
C3372      C3373   1.391       .  A
C3372      H3385   1.084       .  S
C3373      C3374   1.414       .  A
C3373      H3386   1.076       .  S
C3374      C3380   1.427       .  A
C3374      C3375   1.424       .  A
C3375      C3377   1.399       .  A
C3375      C3376   1.405       .  A
C3376      H3387   1.085       .  S
C3377      C3378   1.390       .  A
C3377      H3388   1.084       .  S
C3378      C3379   1.400       .  A
C3378      H3389   1.084       .  S
C3379      C3380   1.421       .  A
C3379      C3384   1.403       .  A
C3380      C3381   1.415       .  A
C3381      C3382   1.393       .  A
C3381      H3390   1.076       .  S
C3382      C3383   1.399       .  A
C3382      H3391   1.083       .  S
C3383      C3384   1.402       .  A
C3384      H3392   1.084       .  S
C3393      C3394   1.397       .  A
C3393      C3398   1.399       .  A
C3394      C3395   1.398       .  A
C3394      H3407   1.083       .  S
C3395      C3396   1.416       .  A
C3395      H3408   1.078       .  S
C3396      C3402   1.430       .  A
C3396      C3397   1.422       .  A
C3397      C3399   1.400       .  A
C3397      C3398   1.404       .  A
C3398      H3409   1.084       .  S
C3399      C3400   1.391       .  A
C3399      H3410   1.084       .  S
C3400      C3401   1.400       .  A
C3400      H3411   1.084       .  S
C3401      C3402   1.423       .  A
C3401      C3406   1.406       .  A
C3402      C3403   1.415       .  A
C3403      C3404   1.397       .  A
C3403      H3412   1.078       .  S
C3404      C3405   1.398       .  A
C3404      H3413   1.084       .  S
C3405      C3406   1.400       .  A
C3406      H3414   1.085       .  S
C3415      C3416   1.398       .  A
C3415      C3420   1.395       .  A
C3416      C3417   1.394       .  A
C3416      H3429   1.082       .  S
C3417      C3418   1.414       .  A
C3417      H3430   1.077       .  S
C3418      C3424   1.425       .  A
C3418      C3419   1.423       .  A
C3419      C3421   1.397       .  A
C3419      C3420   1.399       .  A
C3420      H3431   1.085       .  S
C3421      C3422   1.386       .  A
C3421      H3432   1.084       .  S
C3422      C3423   1.398       .  A
C3422      H3433   1.084       .  S
C3423      C3424   1.421       .  A
C3423      C3428   1.398       .  A
C3424      C3425   1.415       .  A
C3425      C3426   1.396       .  A
C3425      H3434   1.077       .  S
C3426      C3427   1.400       .  A
C3426      H3435   1.083       .  S
C3427      C3428   1.400       .  A
C3428      H3436   1.084       .  S
C3437      C3438   1.399       .  A
C3437      C3442   1.401       .  A
C3438      C3439   1.392       .  A
C3438      H3451   1.083       .  S
C3439      C3440   1.413       .  A
C3439      H3452   1.077       .  S
C3440      C3446   1.425       .  A
C3440      C3441   1.422       .  A
C3441      C3443   1.399       .  A
C3441      C3442   1.401       .  A
C3442      H3453   1.085       .  S
C3443      C3444   1.388       .  A
C3443      H3454   1.084       .  S
C3444      C3445   1.399       .  A
C3444      H3455   1.084       .  S
C3445      C3446   1.421       .  A
C3445      C3450   1.399       .  A
C3446      C3447   1.415       .  A
C3447      C3448   1.393       .  A
C3447      H3456   1.077       .  S
C3448      C3449   1.396       .  A
C3448      H3457   1.082       .  S
C3449      C3450   1.399       .  A
C3450      H3458   1.085       .  S
C3459      C3460   1.396       .  A
C3459      C3464   1.399       .  A
C3460      C3461   1.398       .  A
C3460      H3473   1.083       .  S
C3461      C3462   1.417       .  A
C3461      H3474   1.078       .  S
C3462      C3468   1.430       .  A
C3462      C3463   1.422       .  A
C3463      C3465   1.400       .  A
C3463      C3464   1.405       .  A
C3464      H3475   1.084       .  S
C3465      C3466   1.392       .  A
C3465      H3476   1.084       .  S
C3466      C3467   1.400       .  A
C3466      H3477   1.084       .  S
C3467      C3468   1.423       .  A
C3467      C3472   1.407       .  A
C3468      C3469   1.414       .  A
C3469      C3470   1.397       .  A
C3469      H3478   1.078       .  S
C3470      C3471   1.399       .  A
C3470      H3479   1.084       .  S
C3471      C3472   1.401       .  A
C3472      H3480   1.085       .  S
C3481      C3482   1.396       .  A
C3481      C3486   1.398       .  A
C3482      C3483   1.396       .  A
C3482      H3495   1.083       .  S
C3483      C3484   1.417       .  A
C3483      H3496   1.077       .  S
C3484      C3490   1.428       .  A
C3484      C3485   1.422       .  A
C3485      C3487   1.399       .  A
C3485      C3486   1.401       .  A
C3486      H3497   1.085       .  S
C3487      C3488   1.389       .  A
C3487      H3498   1.084       .  S
C3488      C3489   1.399       .  A
C3488      H3499   1.084       .  S
C3489      C3490   1.424       .  A
C3489      C3494   1.406       .  A
C3490      C3491   1.412       .  A
C3491      C3492   1.393       .  A
C3491      H3500   1.077       .  S
C3492      C3493   1.402       .  A
C3492      H3501   1.083       .  S
C3493      C3494   1.401       .  A
C3494      H3502   1.084       .  S
C3503      C3504   1.397       .  A
C3503      C3508   1.401       .  A
C3504      C3505   1.392       .  A
C3504      H3517   1.084       .  S
C3505      C3506   1.413       .  A
C3505      H3518   1.077       .  S
C3506      C3512   1.426       .  A
C3506      C3507   1.422       .  A
C3507      C3509   1.400       .  A
C3507      C3508   1.405       .  A
C3508      H3519   1.083       .  S
C3509      C3510   1.391       .  A
C3509      H3520   1.084       .  S
C3510      C3511   1.400       .  A
C3510      H3521   1.084       .  S
C3511      C3512   1.422       .  A
C3511      C3516   1.404       .  A
C3512      C3513   1.414       .  A
C3513      C3514   1.392       .  A
C3513      H3522   1.077       .  S
C3514      C3515   1.400       .  A
C3514      H3523   1.083       .  S
C3515      C3516   1.402       .  A
C3516      H3524   1.084       .  S
C3525      C3526   1.397       .  A
C3525      C3530   1.398       .  A
C3526      C3527   1.398       .  A
C3526      H3539   1.083       .  S
C3527      C3528   1.416       .  A
C3527      H3540   1.078       .  S
C3528      C3534   1.431       .  A
C3528      C3529   1.423       .  A
C3529      C3531   1.399       .  A
C3529      C3530   1.405       .  A
C3530      H3541   1.084       .  S
C3531      C3532   1.390       .  A
C3531      H3542   1.084       .  S
C3532      C3533   1.399       .  A
C3532      H3543   1.084       .  S
C3533      C3534   1.422       .  A
C3533      C3538   1.405       .  A
C3534      C3535   1.416       .  A
C3535      C3536   1.399       .  A
C3535      H3544   1.078       .  S
C3536      C3537   1.399       .  A
C3536      H3545   1.083       .  S
C3537      C3538   1.400       .  A
C3538      H3546   1.085       .  S
C3547      C3548   1.398       .  A
C3547      C3552   1.398       .  A
C3548      C3549   1.396       .  A
C3548      H3561   1.082       .  S
C3549      C3550   1.416       .  A
C3549      H3562   1.077       .  S
C3550      C3556   1.428       .  A
C3550      C3551   1.422       .  A
C3551      C3553   1.398       .  A
C3551      C3552   1.400       .  A
C3552      H3563   1.085       .  S
C3553      C3554   1.387       .  A
C3553      H3564   1.084       .  S
C3554      C3555   1.398       .  A
C3554      H3565   1.084       .  S
C3555      C3556   1.423       .  A
C3555      C3560   1.402       .  A
C3556      C3557   1.414       .  A
C3557      C3558   1.395       .  A
C3557      H3566   1.077       .  S
C3558      C3559   1.401       .  A
C3558      H3567   1.083       .  S
C3559      C3560   1.400       .  A
C3560      H3568   1.084       .  S
C3569      C3570   1.396       .  A
C3569      C3574   1.400       .  A
C3570      C3571   1.391       .  A
C3570      H3583   1.084       .  S
C3571      C3572   1.414       .  A
C3571      H3584   1.076       .  S
C3572      C3578   1.426       .  A
C3572      C3573   1.423       .  A
C3573      C3575   1.400       .  A
C3573      C3574   1.405       .  A
C3574      H3585   1.083       .  S
C3575      C3576   1.391       .  A
C3575      H3586   1.084       .  S
C3576      C3577   1.400       .  A
C3576      H3587   1.084       .  S
C3577      C3578   1.422       .  A
C3577      C3582   1.405       .  A
C3578      C3579   1.413       .  A
C3579      C3580   1.391       .  A
C3579      H3588   1.076       .  S
C3580      C3581   1.399       .  A
C3580      H3589   1.083       .  S
C3581      C3582   1.403       .  A
C3582      H3590   1.084       .  S
C3591      C3592   1.399       .  A
C3591      C3596   1.399       .  A
C3592      C3593   1.397       .  A
C3592      H3605   1.084       .  S
C3593      C3594   1.415       .  A
C3593      H3606   1.078       .  S
C3594      C3600   1.429       .  A
C3594      C3595   1.423       .  A
C3595      C3597   1.399       .  A
C3595      C3596   1.405       .  A
C3596      H3607   1.085       .  S
C3597      C3598   1.390       .  A
C3597      H3608   1.084       .  S
C3598      C3599   1.399       .  A
C3598      H3609   1.084       .  S
C3599      C3600   1.423       .  A
C3599      C3604   1.403       .  A
C3600      C3601   1.416       .  A
C3601      C3602   1.397       .  A
C3601      H3610   1.078       .  S
C3602      C3603   1.396       .  A
C3602      H3611   1.083       .  S
C3603      C3604   1.396       .  A
C3604      H3612   1.084       .  S
C3613      C3614   1.398       .  A
C3613      C3618   1.399       .  A
C3614      C3615   1.395       .  A
C3614      H3627   1.082       .  S
C3615      C3616   1.415       .  A
C3615      H3628   1.077       .  S
C3616      C3622   1.429       .  A
C3616      C3617   1.423       .  A
C3617      C3619   1.399       .  A
C3617      C3618   1.403       .  A
C3618      H3629   1.085       .  S
C3619      C3620   1.389       .  A
C3619      H3630   1.084       .  S
C3620      C3621   1.400       .  A
C3620      H3631   1.084       .  S
C3621      C3622   1.422       .  A
C3621      C3626   1.404       .  A
C3622      C3623   1.415       .  A
C3623      C3624   1.395       .  A
C3623      H3632   1.077       .  S
C3624      C3625   1.399       .  A
C3624      H3633   1.083       .  S
C3625      C3626   1.402       .  A
C3626      H3634   1.084       .  S
C3635      C3636   1.400       .  A
C3635      C3640   1.401       .  A
C3636      C3637   1.396       .  A
C3636      H3649   1.080       .  S
C3637      C3638   1.414       .  A
C3637      H3650   1.077       .  S
C3638      C3644   1.429       .  A
C3638      C3639   1.422       .  A
C3639      C3641   1.399       .  A
C3639      C3640   1.403       .  A
C3640      H3651   1.085       .  S
C3641      C3642   1.389       .  A
C3641      H3652   1.084       .  S
C3642      C3643   1.400       .  A
C3642      H3653   1.084       .  S
C3643      C3644   1.422       .  A
C3643      C3648   1.403       .  A
C3644      C3645   1.415       .  A
C3645      C3646   1.396       .  A
C3645      H3654   1.077       .  S
C3646      C3647   1.400       .  A
C3646      H3655   1.083       .  S
C3647      C3648   1.403       .  A
C3648      H3656   1.084       .  S
C3657      C3658   1.397       .  A
C3657      C3662   1.396       .  A
C3658      C3659   1.397       .  A
C3658      H3671   1.083       .  S
C3659      C3660   1.416       .  A
C3659      H3672   1.078       .  S
C3660      C3666   1.428       .  A
C3660      C3661   1.423       .  A
C3661      C3663   1.399       .  A
C3661      C3662   1.403       .  A
C3662      H3673   1.084       .  S
C3663      C3664   1.389       .  A
C3663      H3674   1.084       .  S
C3664      C3665   1.399       .  A
C3664      H3675   1.084       .  S
C3665      C3666   1.422       .  A
C3665      C3670   1.403       .  A
C3666      C3667   1.415       .  A
C3667      C3668   1.397       .  A
C3667      H3676   1.078       .  S
C3668      C3669   1.400       .  A
C3668      H3677   1.083       .  S
C3669      C3670   1.401       .  A
C3670      H3678   1.085       .  S
C3679      C3680   1.400       .  A
C3679      C3684   1.395       .  A
C3680      C3681   1.398       .  A
C3680      H3693   1.082       .  S
C3681      C3682   1.415       .  A
C3681      H3694   1.078       .  S
C3682      C3688   1.429       .  A
C3682      C3683   1.424       .  A
C3683      C3685   1.396       .  A
C3683      C3684   1.398       .  A
C3684      H3695   1.085       .  S
C3685      C3686   1.384       .  A
C3685      H3696   1.084       .  S
C3686      C3687   1.398       .  A
C3686      H3697   1.084       .  S
C3687      C3688   1.421       .  A
C3687      C3692   1.396       .  A
C3688      C3689   1.418       .  A
C3689      C3690   1.401       .  A
C3689      H3698   1.078       .  S
C3690      C3691   1.401       .  A
C3690      H3699   1.083       .  S
C3691      C3692   1.401       .  A
C3692      H3700   1.084       .  S
C3701      C3702   1.396       .  A
C3701      C3706   1.397       .  A
C3702      C3703   1.391       .  A
C3702      H3715   1.084       .  S
C3703      C3704   1.414       .  A
C3703      H3716   1.077       .  S
C3704      C3710   1.425       .  A
C3704      C3705   1.423       .  A
C3705      C3707   1.399       .  A
C3705      C3706   1.403       .  A
C3706      H3717   1.084       .  S
C3707      C3708   1.389       .  A
C3707      H3718   1.084       .  S
C3708      C3709   1.399       .  A
C3708      H3719   1.084       .  S
C3709      C3710   1.422       .  A
C3709      C3714   1.402       .  A
C3710      C3711   1.414       .  A
C3711      C3712   1.392       .  A
C3711      H3720   1.077       .  S
C3712      C3713   1.399       .  A
C3712      H3721   1.083       .  S
C3713      C3714   1.401       .  A
C3714      H3722   1.084       .  S
C3723      C3724   1.397       .  A
C3723      C3728   1.398       .  A
C3724      C3725   1.398       .  A
C3724      H3737   1.083       .  S
C3725      C3726   1.416       .  A
C3725      H3738   1.078       .  S
C3726      C3732   1.431       .  A
C3726      C3727   1.423       .  A
C3727      C3729   1.399       .  A
C3727      C3728   1.404       .  A
C3728      H3739   1.084       .  S
C3729      C3730   1.390       .  A
C3729      H3740   1.084       .  S
C3730      C3731   1.400       .  A
C3730      H3741   1.084       .  S
C3731      C3732   1.423       .  A
C3731      C3736   1.405       .  A
C3732      C3733   1.416       .  A
C3733      C3734   1.399       .  A
C3733      H3742   1.078       .  S
C3734      C3735   1.399       .  A
C3734      H3743   1.084       .  S
C3735      C3736   1.400       .  A
C3736      H3744   1.085       .  S
C3745      C3746   1.398       .  A
C3745      C3750   1.401       .  A
C3746      C3747   1.391       .  A
C3746      H3759   1.084       .  S
C3747      C3748   1.413       .  A
C3747      H3760   1.077       .  S
C3748      C3754   1.427       .  A
C3748      C3749   1.423       .  A
C3749      C3751   1.400       .  A
C3749      C3750   1.406       .  A
C3750      H3761   1.083       .  S
C3751      C3752   1.391       .  A
C3751      H3762   1.084       .  S
C3752      C3753   1.400       .  A
C3752      H3763   1.084       .  S
C3753      C3754   1.422       .  A
C3753      C3758   1.406       .  A
C3754      C3755   1.414       .  A
C3755      C3756   1.392       .  A
C3755      H3764   1.077       .  S
C3756      C3757   1.400       .  A
C3756      H3765   1.083       .  S
C3757      C3758   1.404       .  A
C3758      H3766   1.084       .  S
C3767      C3768   1.400       .  A
C3767      C3772   1.403       .  A
C3768      C3769   1.392       .  A
C3768      H3781   1.083       .  S
C3769      C3770   1.414       .  A
C3769      H3782   1.076       .  S
C3770      C3776   1.428       .  A
C3770      C3771   1.422       .  A
C3771      C3773   1.400       .  A
C3771      C3772   1.406       .  A
C3772      H3783   1.084       .  S
C3773      C3774   1.391       .  A
C3773      H3784   1.084       .  S
C3774      C3775   1.400       .  A
C3774      H3785   1.084       .  S
C3775      C3776   1.423       .  A
C3775      C3780   1.407       .  A
C3776      C3777   1.414       .  A
C3777      C3778   1.391       .  A
C3777      H3786   1.076       .  S
C3778      C3779   1.397       .  A
C3778      H3787   1.084       .  S
C3779      C3780   1.400       .  A
C3780      H3788   1.084       .  S
C3789      C3790   1.398       .  A
C3789      C3794   1.399       .  A
C3790      C3791   1.398       .  A
C3790      H3803   1.084       .  S
C3791      C3792   1.416       .  A
C3791      H3804   1.077       .  S
C3792      C3798   1.431       .  A
C3792      C3793   1.423       .  A
C3793      C3795   1.399       .  A
C3793      C3794   1.406       .  A
C3794      H3805   1.085       .  S
C3795      C3796   1.391       .  A
C3795      H3806   1.084       .  S
C3796      C3797   1.399       .  A
C3796      H3807   1.084       .  S
C3797      C3798   1.423       .  A
C3797      C3802   1.406       .  A
C3798      C3799   1.416       .  A
C3799      C3800   1.397       .  A
C3799      H3808   1.077       .  S
C3800      C3801   1.397       .  A
C3800      H3809   1.083       .  S
C3801      C3802   1.398       .  A
C3802      H3810   1.084       .  S
C3811      C3812   1.402       .  A
C3811      C3816   1.400       .  A
C3812      C3813   1.398       .  A
C3812      H3825   1.083       .  S
C3813      C3814   1.415       .  A
C3813      H3826   1.078       .  S
C3814      C3820   1.430       .  A
C3814      C3815   1.423       .  A
C3815      C3817   1.398       .  A
C3815      C3816   1.401       .  A
C3816      H3827   1.084       .  S
C3817      C3818   1.386       .  A
C3817      H3828   1.084       .  S
C3818      C3819   1.397       .  A
C3818      H3829   1.084       .  S
C3819      C3820   1.422       .  A
C3819      C3824   1.398       .  A
C3820      C3821   1.418       .  A
C3821      C3822   1.400       .  A
C3821      H3830   1.078       .  S
C3822      C3823   1.398       .  A
C3822      H3831   1.083       .  S
C3823      C3824   1.396       .  A
C3824      H3832   1.085       .  S
C3833      C3834   1.396       .  A
C3833      C3838   1.401       .  A
C3834      C3835   1.389       .  A
C3834      H3847   1.084       .  S
C3835      C3836   1.413       .  A
C3835      H3848   1.076       .  S
C3836      C3842   1.425       .  A
C3836      C3837   1.423       .  A
C3837      C3839   1.400       .  A
C3837      C3838   1.407       .  A
C3838      H3849   1.083       .  S
C3839      C3840   1.392       .  A
C3839      H3850   1.084       .  S
C3840      C3841   1.401       .  A
C3840      H3851   1.084       .  S
C3841      C3842   1.422       .  A
C3841      C3846   1.407       .  A
C3842      C3843   1.413       .  A
C3843      C3844   1.389       .  A
C3843      H3852   1.076       .  S
C3844      C3845   1.398       .  A
C3844      H3853   1.083       .  S
C3845      C3846   1.403       .  A
C3846      H3854   1.084       .  S
C3855      C3856   1.396       .  A
C3855      C3860   1.396       .  A
C3856      C3857   1.399       .  A
C3856      H3869   1.083       .  S
C3857      C3858   1.417       .  A
C3857      H3870   1.078       .  S
C3858      C3864   1.432       .  A
C3858      C3859   1.424       .  A
C3859      C3861   1.399       .  A
C3859      C3860   1.404       .  A
C3860      H3871   1.084       .  S
C3861      C3862   1.390       .  A
C3861      H3872   1.084       .  S
C3862      C3863   1.399       .  A
C3862      H3873   1.084       .  S
C3863      C3864   1.423       .  A
C3863      C3868   1.406       .  A
C3864      C3865   1.416       .  A
C3865      C3866   1.399       .  A
C3865      H3874   1.078       .  S
C3866      C3867   1.400       .  A
C3866      H3875   1.083       .  S
C3867      C3868   1.400       .  A
C3868      H3876   1.085       .  S
C3877      C3878   1.399       .  A
C3877      C3882   1.400       .  A
C3878      C3879   1.395       .  A
C3878      H3891   1.081       .  S
C3879      C3880   1.414       .  A
C3879      H3892   1.077       .  S
C3880      C3886   1.429       .  A
C3880      C3881   1.423       .  A
C3881      C3883   1.398       .  A
C3881      C3882   1.402       .  A
C3882      H3893   1.085       .  S
C3883      C3884   1.388       .  A
C3883      H3894   1.084       .  S
C3884      C3885   1.400       .  A
C3884      H3895   1.084       .  S
C3885      C3886   1.421       .  A
C3885      C3890   1.402       .  A
C3886      C3887   1.416       .  A
C3887      C3888   1.398       .  A
C3887      H3896   1.077       .  S
C3888      C3889   1.400       .  A
C3888      H3897   1.083       .  S
C3889      C3890   1.403       .  A
C3890      H3898   1.084       .  S
C3899      C3900   1.396       .  A
C3899      C3904   1.398       .  A
C3900      C3901   1.391       .  A
C3900      H3913   1.084       .  S
C3901      C3902   1.414       .  A
C3901      H3914   1.077       .  S
C3902      C3908   1.427       .  A
C3902      C3903   1.424       .  A
C3903      C3905   1.399       .  A
C3903      C3904   1.405       .  A
C3904      H3915   1.084       .  S
C3905      C3906   1.390       .  A
C3905      H3916   1.084       .  S
C3906      C3907   1.400       .  A
C3906      H3917   1.084       .  S
C3907      C3908   1.422       .  A
C3907      C3912   1.404       .  A
C3908      C3909   1.414       .  A
C3909      C3910   1.393       .  A
C3909      H3918   1.077       .  S
C3910      C3911   1.399       .  A
C3910      H3919   1.083       .  S
C3911      C3912   1.402       .  A
C3912      H3920   1.084       .  S
C3921      C3922   1.398       .  A
C3921      C3926   1.397       .  A
C3922      C3923   1.399       .  A
C3922      H3935   1.083       .  S
C3923      C3924   1.416       .  A
C3923      H3936   1.078       .  S
C3924      C3930   1.433       .  A
C3924      C3925   1.424       .  A
C3925      C3927   1.399       .  A
C3925      C3926   1.405       .  A
C3926      H3937   1.084       .  S
C3927      C3928   1.389       .  A
C3927      H3938   1.084       .  S
C3928      C3929   1.399       .  A
C3928      H3939   1.084       .  S
C3929      C3930   1.423       .  A
C3929      C3934   1.405       .  A
C3930      C3931   1.417       .  A
C3931      C3932   1.401       .  A
C3931      H3940   1.078       .  S
C3932      C3933   1.399       .  A
C3932      H3941   1.083       .  S
C3933      C3934   1.399       .  A
C3934      H3942   1.085       .  S
C3943      C3944   1.396       .  A
C3943      C3948   1.399       .  A
C3944      C3945   1.391       .  A
C3944      H3957   1.084       .  S
C3945      C3946   1.414       .  A
C3945      H3958   1.076       .  S
C3946      C3952   1.427       .  A
C3946      C3947   1.423       .  A
C3947      C3949   1.400       .  A
C3947      C3948   1.407       .  A
C3948      H3959   1.084       .  S
C3949      C3950   1.391       .  A
C3949      H3960   1.084       .  S
C3950      C3951   1.400       .  A
C3950      H3961   1.084       .  S
C3951      C3952   1.422       .  A
C3951      C3956   1.407       .  A
C3952      C3953   1.413       .  A
C3953      C3954   1.391       .  A
C3953      H3962   1.076       .  S
C3954      C3955   1.401       .  A
C3954      H3963   1.083       .  S
C3955      C3956   1.402       .  A
C3956      H3964   1.084       .  S
C3965      C3966   1.399       .  A
C3965      C3970   1.396       .  A
C3966      C3967   1.398       .  A
C3966      H3979   1.083       .  S
C3967      C3968   1.416       .  A
C3967      H3980   1.077       .  S
C3968      C3974   1.429       .  A
C3968      C3969   1.423       .  A
C3969      C3971   1.397       .  A
C3969      C3970   1.399       .  A
C3970      H3981   1.085       .  S
C3971      C3972   1.385       .  A
C3971      H3982   1.084       .  S
C3972      C3973   1.398       .  A
C3972      H3983   1.084       .  S
C3973      C3974   1.421       .  A
C3973      C3978   1.398       .  A
C3974      C3975   1.417       .  A
C3975      C3976   1.400       .  A
C3975      H3984   1.077       .  S
C3976      C3977   1.401       .  A
C3976      H3985   1.083       .  S
C3977      C3978   1.400       .  A
C3978      H3986   1.084       .  S
C3987      C3988   1.397       .  A
C3987      C3992   1.397       .  A
C3988      C3989   1.399       .  A
C3988      H4001   1.083       .  S
C3989      C3990   1.416       .  A
C3989      H4002   1.078       .  S
C3990      C3996   1.430       .  A
C3990      C3991   1.423       .  A
C3991      C3993   1.399       .  A
C3991      C3992   1.403       .  A
C3992      H4003   1.084       .  S
C3993      C3994   1.389       .  A
C3993      H4004   1.084       .  S
C3994      C3995   1.399       .  A
C3994      H4005   1.084       .  S
C3995      C3996   1.423       .  A
C3995      C4000   1.404       .  A
C3996      C3997   1.416       .  A
C3997      C3998   1.399       .  A
C3997      H4006   1.078       .  S
C3998      C3999   1.399       .  A
C3998      H4007   1.083       .  S
C3999      C4000   1.399       .  A
C4000      H4008   1.085       .  S
