geometry optimzed in LAMMPS
_audit_creation_date              2020-11-30 
_audit_creation_method            'lammps2cif' 
_symmetry_space_group_name_H-M    'P1' 
_symmetry_Int_Tables_number       1 
_symmetry_cell_setting            triclinic 
loop_ 
_symmetry_equiv_pos_as_xyz 
  x,y,z 
_cell_length_a                    47.59322497 
_cell_length_b                    49.627147826151415 
_cell_length_c                    32.00406108403578 
_cell_angle_alpha                 78.2493563959986 
_cell_angle_beta                  76.97061692163861 
_cell_angle_gamma                 90.90429757270378 
loop_ 
_atom_site_label 
_atom_site_type_symbol 
_atom_site_fract_x 
_atom_site_fract_y 
_atom_site_fract_z 
_atom_site_charge 
N1          N  0.39320050  0.31398606  0.00377014    -0.03200
C2          C  0.41977270  0.32705528  0.99522337    -0.00600
C3          C  0.43829728  0.32022733  0.46031742    -0.23500
C4          C  0.42289201  0.30170442  0.44639272    -0.23700
C5          C  0.39524109  0.29903047  0.47263026    -0.00700
H6          H  0.45988318  0.32915980  0.44417857     0.13100
H7          H  0.43012757  0.29347396  0.41722944     0.13100
N8          N  0.17670325  0.35732530  0.02047307    -0.03200
C9          C  0.17248888  0.38402045  0.00246630    -0.00600
C10         C  0.18465988  0.40204581  0.02223079    -0.23500
C11         C  0.19425189  0.38653049  0.05577588    -0.23700
C12         C  0.18866468  0.35939068  0.05474718    -0.00700
H13         H  0.18247394  0.42408731  0.01748941     0.13100
H14         H  0.20319155  0.39419803  0.07968502     0.13100
N15         N  0.34720826  0.10079158  0.04457526    -0.03200
C16         C  0.35913535  0.07628892  0.04200332    -0.00600
C17         C  0.35114229  0.05799168  0.08218901    -0.23500
C18         C  0.33466619  0.07173913  0.11079368    -0.23700
C19         C  0.33269113  0.09782126  0.08704911    -0.00700
H20         H  0.36001311  0.03827977  0.09130188     0.13100
H21         H  0.32757418  0.06455893  0.14600250     0.13100
N22         N  0.02275892  0.44528109  0.48830177    -0.36300
N23         N  0.47762003  0.48029201  0.48743815    -0.56900
N24         N  0.01503976  0.02496134  0.49607169    -0.36300
N25         N  0.06419356  0.49096809  0.48293974    -0.56900
C26         C  0.50404493  0.42887073  0.47593925     0.27300
C27         C  0.04798761  0.43499853  0.47165300     0.27300
C28         C  0.99344064  0.03946547  0.48337822     0.27300
C29         C  0.03510201  0.04289757  0.99163695     0.27300
C30         C  0.46263281  0.45547909  0.50109898     0.35900
C31         C  0.45599930  0.99982239  0.49862724     0.35900
C32         C  0.08010944  0.46879539  0.48875399     0.35900
C33         C  0.07283725  0.50994726  0.00588093     0.35900
C34         C  0.51618932  0.40831979  0.45541613    -0.21600
C35         C  0.04241612  0.41159149  0.45670141    -0.21600
C36         C  0.00293181  0.06710390  0.46869066    -0.21600
C37         C  0.02723840  0.06944998  0.97838496    -0.21600
C38         C  0.43417447  0.45860480  0.52075281    -0.22700
C39         C  0.42868690  0.98709446  0.51834093    -0.22700
C40         C  0.09998793  0.47432172  0.01427071    -0.22700
C41         C  0.09586402  0.50009068  0.02313985    -0.22700
C42         C  0.47425172  0.43042468  0.49356202    -0.18000
C43         C  0.07532678  0.44385216  0.47592319    -0.18000
C44         C  0.06053755  0.03602101  0.00624422    -0.18000
C45         C  0.46318028  0.02865381  0.48898575    -0.18000
H46         H  0.50488793  0.39176404  0.44718569     0.14900
H47         H  0.05804198  0.39822727  0.44301825     0.14900
H48         H  0.99059231  0.08404397  0.45734716     0.14900
H49         H  0.03987002  0.08848696  0.97461930     0.14900
H50         H  0.41696513  0.44260841  0.53476214     0.13200
H51         H  0.40908463  0.99675819  0.53004820     0.13200
H52         H  0.11603530  0.46067709  0.02379566     0.13200
H53         H  0.10833020  0.51015207  0.04061871     0.13200
H54         H  0.02023596  0.46028565  0.50703067     0.26400
H55         H  0.01314352  0.00476366  0.51398419     0.26400
N56         N  0.13074658  0.11210201  0.11046745    -0.03200
C57         C  0.10922836  0.09214178  0.11725841    -0.00600
C58         C  0.10032724  0.08048460  0.16165365    -0.23500
C59         C  0.11617213  0.09400577  0.18283929    -0.23700
C60         C  0.13447693  0.11347515  0.15096154    -0.00700
H61         H  0.08420270  0.06366385  0.17711494     0.13100
H62         H  0.11455613  0.09005877  0.21785673     0.13100
O63         O  0.31806624  0.27005685  0.34899561    -0.75000
O64         O  0.28850278  0.24626944  0.41269247    -0.53900
C65         C  0.31017619  0.26302475  0.39120511     0.78700
O66         O  0.21067949  0.28621558  0.23279226    -0.59600
O67         O  0.23218862  0.26022550  0.18469560    -0.52600
C68         C  0.21766821  0.28050133  0.19435903     0.70700
O69         O  0.20760241  0.28295791  0.37595732    -0.74200
O70         O  0.22829124  0.25584026  0.42605825    -0.54700
C71         C  0.21353666  0.27634572  0.41386637     0.76700
O72         O  0.32234494  0.27444476  0.20590912    -0.59300
O73         O  0.29425484  0.25470052  0.16972047    -0.52400
C74         C  0.31608277  0.27015031  0.17066387     0.73300
Zr75       Zr  0.30349444  0.26024508  0.28478590     2.54700
O76         O  0.31159475  0.31022734  0.26882189    -0.79900
O77         O  0.35478355  0.25261150  0.27403002    -0.93300
Zr78       Zr  0.21847367  0.26805064  0.30650329     2.64700
O79         O  0.22494089  0.31816453  0.29210244    -0.98200
O80         O  0.16611243  0.26960608  0.32231219    -0.80300
O81         O  0.26012459  0.26361910  0.33642996    -0.83700
O82         O  0.26219671  0.26604140  0.25486798    -2.18400
O83         O  0.30149520  0.16633983  0.23560643    -0.67100
O84         O  0.28077670  0.19427897  0.18658851    -0.51600
C85         C  0.29560678  0.17385182  0.19757266     0.71700
O86         O  0.18834097  0.17175498  0.41108351    -0.60000
O87         O  0.21682902  0.19184453  0.44637474    -0.51900
C88         C  0.19548305  0.17579953  0.44589560     0.73500
O89         O  0.19311754  0.17316779  0.26872101    -0.71400
O90         O  0.22106923  0.19851684  0.20466504    -0.50000
C91         C  0.20117601  0.17975563  0.22655438     0.74900
O92         O  0.30070508  0.16184164  0.37947131    -0.66700
O93         O  0.28018155  0.18753585  0.42866419    -0.53900
C94         C  0.29549637  0.16773633  0.41779201     0.73300
Zr95       Zr  0.29013930  0.17902212  0.30772789     2.77500
O96         O  0.27892606  0.12944797  0.32319404    -0.97400
O97         O  0.34201440  0.17386759  0.29202235    -0.78300
Zr98       Zr  0.20538442  0.18695532  0.33176458     2.70100
O99         O  0.19646497  0.13705767  0.34892461    -0.79500
O100        O  0.15390373  0.19393807  0.34454130    -0.98600
Zr101      Zr  0.25304100  0.22124772  0.38942433     2.21500
Zr102      Zr  0.25598263  0.22618250  0.22641801     2.11100
O103        O  0.24843371  0.18380044  0.27934633    -2.47300
O104        O  0.24699487  0.18121268  0.36115835    -0.79300
O105        O  0.29840839  0.22102460  0.25446194    -0.71500
O106        O  0.21061167  0.22649206  0.36098057    -2.32400
O107        O  0.29669271  0.21822612  0.33712680    -2.28700
O108        O  0.21164299  0.22867584  0.27769808    -0.73200
H109        H  0.26558611  0.28252887  0.23209157     0.78700
H110        H  0.19378063  0.22754999  0.38388232     0.79800
H111        H  0.24625696  0.16826190  0.26621626     0.82100
H112        H  0.31297851  0.21613793  0.35061853     0.79700
H113        H  0.15972562  0.25703247  0.30541139     0.42700
H114        H  0.15094585  0.20299482  0.31543520     0.41700
H115        H  0.21582317  0.12995773  0.34083532     0.41400
H116        H  0.29781478  0.12130510  0.32283500     0.39300
H117        H  0.34983381  0.18754761  0.26439584     0.42400
H118        H  0.36465438  0.27104735  0.26031699     0.37200
H119        H  0.29520077  0.31645116  0.28892631     0.43300
H120        H  0.24137254  0.32310548  0.26612906     0.39700
H121        H  0.26833375  0.12472203  0.35439229     0.44700
H122        H  0.35882466  0.24205219  0.25045976     0.43400
H123        H  0.20787444  0.32490652  0.28125955     0.43500
H124        H  0.14456898  0.17515150  0.35030277     0.43900
C125        C  0.17421508  0.11960071  0.18673564    -0.26000
C126        C  0.15517740  0.13206175  0.16205336    -0.14100
C127        C  0.15272129  0.16090890  0.15641413     0.36500
C128        C  0.16914422  0.17644150  0.17563062    -0.25500
C129        C  0.18699758  0.16361953  0.20210362    -0.14700
C130        C  0.18975439  0.13490843  0.20741224     0.37600
N131        N  0.20829242  0.12135909  0.23385309    -0.89000
H132        H  0.17584891  0.09746525  0.19167121     0.18700
H133        H  0.16670143  0.19841856  0.17192851     0.18700
N134        N  0.13233773  0.17469481  0.13420335    -0.88000
H135        H  0.20908585  0.10052062  0.23238230     0.36100
H136        H  0.19902181  0.12184943  0.26651961     0.41200
H137        H  0.11180720  0.16495080  0.14867353     0.40800
H138        H  0.13798035  0.17310143  0.10143317     0.35700
C139        C  0.13194058  0.14280947  0.03915471    -0.26000
C140        C  0.14675297  0.12808991  0.06884167    -0.14100
C141        C  0.17712971  0.12884144  0.05715759     0.36500
C142        C  0.19254753  0.14737643  0.52003258    -0.25500
C143        C  0.17817026  0.16048912  0.48855925    -0.14700
C144        C  0.14769898  0.15795079  0.49772782     0.37600
N145        N  0.13262242  0.17037671  0.46521302    -0.89000
H146        H  0.10854808  0.14197950  0.04813364     0.18700
H147        H  0.21597369  0.14856123  0.51266287     0.18700
N148        N  0.19261615  0.11196845  0.08495999    -0.88000
H149        H  0.13639580  0.19175725  0.45974025     0.36100
H150        H  0.11031628  0.16613414  0.47693959     0.41200
H151        H  0.20740859  0.12480899  0.09274706     0.40800
H152        H  0.20433808  0.09869584  0.06709360     0.35700
C153        C  0.05534592  0.06233470  0.06511855    -0.26000
C154        C  0.07324309  0.05560406  0.02798003    -0.14100
C155        C  0.10285024  0.06504812  0.01610458     0.36500
C156        C  0.11431895  0.07773989  0.04471575    -0.25500
C157        C  0.09657432  0.08280216  0.08351268    -0.14700
C158        C  0.06648603  0.07636496  0.09227506     0.37600
N159        N  0.04734140  0.08362220  0.12940236    -0.89000
H160        H  0.03257793  0.05571157  0.07389762     0.18700
H161        H  0.13736231  0.08283389  0.03709950     0.18700
N162        N  0.12440427  0.06221659  0.47741647    -0.88000
H163        H  0.02593240  0.07728557  0.13141315     0.36100
H164        H  0.04832435  0.10514506  0.12416709     0.41200
H165        H  0.11390015  0.05322397  0.45784471     0.40800
H166        H  0.14004709  0.04905355  0.48607310     0.35700
C167        C  0.43782004  0.06806453  0.01705460    -0.26000
C168        C  0.43894690  0.04775263  0.49162815    -0.14100
C169        C  0.41643613  0.04591790  0.46971307     0.36500
C170        C  0.39016089  0.05541407  0.98540767    -0.25500
C171        C  0.38768232  0.07370461  0.01388059    -0.14700
C172        C  0.41237155  0.08159205  0.02695313     0.37600
N173        N  0.41070600  0.10135907  0.05420512    -0.89000
H174        H  0.45543888  0.07215276  0.03167850     0.18700
H175        H  0.37115260  0.04928150  0.97543109     0.18700
N176        N  0.41952650  0.02990893  0.43643768    -0.88000
H177        H  0.42639251  0.11737434  0.03833589     0.36100
H178        H  0.41582732  0.09183022  0.08359176     0.41200
H179        H  0.43644883  0.03945481  0.41037778     0.40800
H180        H  0.40095732  0.03027040  0.42407370     0.35700
C181        C  0.33348036  0.14711653  0.16155550    -0.26000
C182        C  0.30605202  0.15732164  0.16445611    -0.14100
C183        C  0.28853369  0.15050799  0.13713958     0.36500
C184        C  0.29816381  0.13201057  0.10983293    -0.25500
C185        C  0.32493660  0.12077011  0.10907772    -0.14700
C186        C  0.34314882  0.12919027  0.13372675     0.37600
N187        N  0.37135498  0.11907671  0.13111006    -0.89000
H188        H  0.34733638  0.15277903  0.18144315     0.18700
H189        H  0.28438821  0.12553034  0.09047196     0.18700
N190        N  0.26061124  0.16136309  0.13863823    -0.88000
H191        H  0.37262716  0.10896690  0.16258646     0.36100
H192        H  0.38644553  0.13602898  0.12086483     0.41200
H193        H  0.24789258  0.15352421  0.17004433     0.40800
H194        H  0.25052313  0.15418278  0.11679156     0.35700
C195        C  0.32388246  0.16222346  0.47594602    -0.26000
C196        C  0.30819546  0.15014497  0.45139497    -0.14100
C197        C  0.30581913  0.12112135  0.45771913     0.36500
C198        C  0.32277980  0.10627319  0.98370465    -0.25500
C199        C  0.33527234  0.11687189  0.51228767    -0.14700
C200        C  0.33750614  0.14584489  0.50607654     0.37600
N201        N  0.35382343  0.15869264  0.53000551    -0.89000
H202        H  0.32601738  0.18446268  0.47115804     0.18700
H203        H  0.32077921  0.08400423  0.98883044     0.18700
N204        N  0.28879058  0.10822327  0.43449411    -0.88000
H205        H  0.34015452  0.17092118  0.54755604     0.36100
H206        H  0.37022048  0.17176004  0.50734703     0.41200
H207        H  0.26733401  0.11291232  0.44493188     0.40800
H208        H  0.29430338  0.08787414  0.93666641     0.35700
C209        C  0.09519769  0.40259925  0.01597210    -0.26000
C210        C  0.09754834  0.42439268  0.97974972    -0.14100
C211        C  0.12416634  0.42856670  0.44252640     0.36500
C212        C  0.14727313  0.41395104  0.95241137    -0.25500
C213        C  0.14547824  0.39319348  0.99018913    -0.14700
C214        C  0.11907475  0.38755372  0.02207828     0.37600
N215        N  0.11726173  0.36851740  0.06283609    -0.89000
H216        H  0.07544951  0.39885512  0.04160034     0.20700
H217        H  0.16783698  0.41911422  0.92880131     0.18700
N218        N  0.12691332  0.45062624  0.40472660    -0.88000
H219        H  0.10027774  0.35383399  0.06721598     0.36100
H220        H  0.11214677  0.37931113  0.08813302     0.41200
H221        H  0.11209302  0.44592699  0.38720096     0.40800
H222        H  0.14744532  0.45162074  0.38389167     0.35700
C223        C  0.18411301  0.29603924  0.14671066    -0.26000
C224        C  0.21063126  0.29976018  0.15755037    -0.14100
C225        C  0.23085548  0.32124557  0.13159976     0.36500
C226        C  0.22349707  0.33915062  0.09670110    -0.25500
C227        C  0.19650648  0.33639504  0.08677563    -0.14700
C228        C  0.17682638  0.31411036  0.11156911     0.37600
N229        N  0.14890213  0.31001533  0.10341338    -0.89000
H230        H  0.16883263  0.27923650  0.16606879     0.18700
H231        H  0.23893375  0.35589458  0.07757642     0.18700
N232        N  0.25896760  0.32571915  0.13953536    -0.88000
H233        H  0.15144853  0.30705842  0.07144982     0.36100
H234        H  0.13775011  0.32767952  0.10657160     0.41200
H235        H  0.26275890  0.31108725  0.16565859     0.40800
H236        H  0.25970974  0.34485060  0.14829822     0.35700
C237        C  0.17511028  0.30292871  0.45064595    -0.26000
C238        C  0.20363013  0.29486814  0.44434627    -0.14100
C239        C  0.22334603  0.30737814  0.46252254     0.36500
C240        C  0.21257525  0.32622988  0.99084062    -0.25500
C241        C  0.18464074  0.33622777  0.99474314    -0.14700
C242        C  0.16585540  0.32329454  0.47443701     0.37600
N243        N  0.13637569  0.32996637  0.47931217    -0.89000
H244        H  0.15994491  0.29360397  0.43620939     0.18700
H245        H  0.22786375  0.33494029  0.00562438     0.18700
N246        N  0.25284450  0.29983303  0.45584836    -0.88000
H247        H  0.13563594  0.34966187  0.46073557     0.36100
H248        H  0.12643296  0.33190395  0.00824598     0.41200
H249        H  0.26237602  0.30578941  0.42229283     0.40800
H250        H  0.26454584  0.31075283  0.47175141     0.35700
C251        C  0.43379948  0.40429304  0.47825158    -0.26000
C252        C  0.45482612  0.40503273  0.50253628    -0.14100
C253        C  0.45751494  0.37950048  0.03652240     0.36500
C254        C  0.44480626  0.35430546  0.03438714    -0.25500
C255        C  0.42523431  0.35476961  0.50601979    -0.14700
C256        C  0.41862579  0.37936703  0.48020374     0.37600
N257        N  0.39832039  0.37844290  0.45330462    -0.89000
H258        H  0.43037876  0.42287766  0.45598414     0.18700
H259        H  0.45096995  0.33526696  0.05242005     0.18700
N260        N  0.47669830  0.37903856  0.06550108    -0.88000
H261        H  0.39635099  0.39818859  0.43549771     0.36100
H262        H  0.37808097  0.37199923  0.47433085     0.41200
H263        H  0.48324273  0.39889146  0.06713447     0.40800
H264        H  0.49515648  0.36939487  0.05301138     0.35700
C265        C  0.38439679  0.29787557  0.08339093    -0.26000
C266        C  0.37336762  0.30784061  0.04644367    -0.14100
C267        C  0.34315643  0.30758739  0.05145839     0.36500
C268        C  0.32470366  0.29510239  0.09205233    -0.25500
C269        C  0.33588949  0.28381276  0.12842186    -0.14700
C270        C  0.36612350  0.28598636  0.12422094     0.37600
N271        N  0.37833911  0.27497481  0.16085441    -0.89000
H272        H  0.40757894  0.29789702  0.07969175     0.18700
H273        H  0.30154600  0.29434076  0.09516951     0.18700
N274        N  0.33113358  0.32016367  0.01564121    -0.88000
H275        H  0.40078732  0.27882684  0.15254795     0.36100
H276        H  0.37442546  0.25355055  0.16799439     0.41200
H277        H  0.31847262  0.33728344  0.52509914     0.40800
H278        H  0.31750571  0.30533244  0.00978622     0.35700
C279        C  0.36256781  0.30881954  0.42296682    -0.26000
C280        C  0.37066217  0.29027545  0.45677717    -0.14100
C281        C  0.35648131  0.26385475  0.47232379     0.36500
C282        C  0.33534182  0.25601100  0.45219263    -0.25500
C283        C  0.32822413  0.27410503  0.41660435    -0.14700
C284        C  0.34096631  0.30142906  0.40346963     0.37600
N285        N  0.33255747  0.32219849  0.37089220    -0.89000
H286        H  0.37314436  0.32937928  0.41170110     0.18700
H287        H  0.32545453  0.23520462  0.46301172     0.18700
N288        N  0.36382110  0.24442177  0.50728629    -0.88000
H289        H  0.32668279  0.33906776  0.38518122     0.36100
H290        H  0.31378578  0.31572849  0.36312972     0.41200
H291        H  0.36030926  0.25300392  0.53510573     0.40800
H292        H  0.38582099  0.24121998  0.49820586     0.35700
N293        N  0.39296464  0.31526371  0.50244048    -0.03200
C294        C  0.41949666  0.32831210  0.49446216    -0.00600
C295        C  0.43834679  0.31878865  0.96106804    -0.23500
C296        C  0.42273735  0.30004077  0.94784842    -0.23700
C297        C  0.39513238  0.29750091  0.97434725    -0.00700
H298        H  0.45989621  0.32765157  0.94453282     0.13100
H299        H  0.42972863  0.29172564  0.91871081     0.13100
N300        N  0.17767662  0.35746589  0.51806581    -0.03200
C301        C  0.17283533  0.38393824  0.50003500    -0.00600
C302        C  0.18484436  0.40235151  0.51933717    -0.23500
C303        C  0.19555209  0.38724084  0.55209602    -0.23700
C304        C  0.19041141  0.35999941  0.55133532    -0.00700
H305        H  0.18211935  0.42430820  0.51461315     0.13100
H306        H  0.20476684  0.39518860  0.57548962     0.13100
N307        N  0.34509027  0.09919417  0.54735820    -0.03200
C308        C  0.35773058  0.07509124  0.54366447    -0.00600
C309        C  0.34958373  0.05609169  0.58313759    -0.23500
C310        C  0.33248123  0.06901301  0.61242518    -0.23700
C311        C  0.33015641  0.09533699  0.58981883    -0.00700
H312        H  0.35883822  0.03649575  0.59156442     0.13100
H313        H  0.32529833  0.06116158  0.64747076     0.13100
N314        N  0.02174070  0.44561131  0.99032162    -0.36300
N315        N  0.47421160  0.48017354  0.99072980    -0.56900
N316        N  0.01305395  0.02465646  0.99423854    -0.36300
N317        N  0.06252030  0.49088354  0.98741982    -0.56900
C318        C  0.50081825  0.42850109  0.98384620     0.27300
C319        C  0.04712942  0.43507747  0.97514166     0.27300
C320        C  0.99103338  0.03920092  0.98298747     0.27300
C321        C  0.03773840  0.04301821  0.49068373     0.27300
C322        C  0.45909700  0.45542155  0.00548694     0.35900
C323        C  0.45729942  0.00017399  0.00449317     0.35900
C324        C  0.07871628  0.46893171  0.99328317     0.35900
C325        C  0.07432108  0.50957107  0.50248350     0.35900
C326        C  0.51342082  0.40790905  0.96390607    -0.21600
C327        C  0.04194051  0.41178499  0.95964186    -0.21600
C328        C  0.99966222  0.06712035  0.97197601    -0.21600
C329        C  0.03077109  0.06939740  0.47416567    -0.21600
C330        C  0.43048091  0.45896767  0.02359439    -0.22700
C331        C  0.43072077  0.98729380  0.02816511    -0.22700
C332        C  0.10098242  0.47358352  0.51078586    -0.22700
C333        C  0.09681726  0.49912115  0.52053006    -0.22700
C334        C  0.47090028  0.43003608  0.00017467    -0.18000
C335        C  0.07418320  0.44388512  0.98060523    -0.18000
C336        C  0.06296438  0.03627076  0.50570879    -0.18000
C337        C  0.46403898  0.02897421  0.99125678    -0.18000
H338        H  0.50251702  0.39128930  0.95522680     0.14900
H339        H  0.05772897  0.39829640  0.94674410     0.14900
H340        H  0.98694378  0.08416978  0.96237617     0.14900
H341        H  0.04417461  0.08829621  0.46763827     0.14900
H342        H  0.41315900  0.44312564  0.03801427     0.13200
H343        H  0.41151382  0.99695099  0.04161858     0.13200
H344        H  0.11659690  0.45956827  0.52079926     0.13200
H345        H  0.10879500  0.50852059  0.53936879     0.13200
H346        H  0.01873767  0.46052908  0.00919260     0.26400
H347        H  0.01175631  0.00394971  0.00950220     0.26400
N348        N  0.13013397  0.11382900  0.61170945    -0.03200
C349        C  0.10852808  0.09409622  0.61772822    -0.00600
C350        C  0.09894230  0.08236939  0.66197725    -0.23500
C351        C  0.11455861  0.09553395  0.68391117    -0.23700
C352        C  0.13324087  0.11498083  0.65258774    -0.00700
H353        H  0.08256353  0.06568890  0.67679719     0.13100
H354        H  0.11243151  0.09147294  0.71905275     0.13100
O355        O  0.31735239  0.27156920  0.84867452    -0.75000
O356        O  0.28847496  0.24685407  0.91229750    -0.53900
C357        C  0.30993609  0.26387552  0.89086218     0.78700
O358        O  0.21201449  0.28812952  0.73118827    -0.59600
O359        O  0.23350452  0.26201374  0.68323295    -0.52600
C360        C  0.21932947  0.28252557  0.69262285     0.70700
O361        O  0.20781311  0.28407446  0.87556887    -0.74200
O362        O  0.22779774  0.25642271  0.92603288    -0.54700
C363        C  0.21329439  0.27715658  0.91380309     0.76700
O364        O  0.32214443  0.27492794  0.70440648    -0.59300
O365        O  0.29386383  0.25524760  0.66835797    -0.52400
C366        C  0.31579441  0.27052298  0.66918713     0.73300
Zr367      Zr  0.30354414  0.26160036  0.78388632     2.54700
O368        O  0.31223836  0.31149784  0.76905896    -0.79900
O369        O  0.35496576  0.25402599  0.77149669    -0.93300
Zr370      Zr  0.21851306  0.26919304  0.80574738     2.64700
O371        O  0.22375372  0.31939911  0.78960030    -0.98200
O372        O  0.16599323  0.26881926  0.82090360    -0.80300
O373        O  0.26006392  0.26442037  0.83588443    -0.83700
O374        O  0.26223679  0.26717184  0.75408813    -2.18400
O375        O  0.30127409  0.16710247  0.73516267    -0.67100
O376        O  0.28036737  0.19468783  0.68607574    -0.51600
C377        C  0.29510216  0.17417663  0.69731561     0.71700
O378        O  0.18774519  0.17255328  0.91013202    -0.60000
O379        O  0.21632333  0.19207039  0.94585319    -0.51900
C380        C  0.19481469  0.17621180  0.94513073     0.73500
O381        O  0.19244391  0.17506297  0.76877055    -0.71400
O382        O  0.21977693  0.20079773  0.70453882    -0.50000
C383        C  0.19991607  0.18208897  0.72666816     0.74900
O384        O  0.30182823  0.16320210  0.87737352    -0.66700
O385        O  0.28087083  0.18820372  0.92735711    -0.53900
C386        C  0.29666301  0.16880197  0.91583096     0.73300
Zr387      Zr  0.29086789  0.18075819  0.80630755     2.77500
O388        O  0.28587704  0.13065446  0.81943762    -0.97400
O389        O  0.34343585  0.18149060  0.78800531    -0.78300
Zr390      Zr  0.20569759  0.18812275  0.83122009     2.70100
O391        O  0.19766960  0.13815158  0.84700787    -0.79500
O392        O  0.15423014  0.19524126  0.84474942    -0.98600
Zr393      Zr  0.25293822  0.22197486  0.88917847     2.21500
Zr394      Zr  0.25597690  0.22722864  0.72563441     2.11100
O395        O  0.24871727  0.18495123  0.77870327    -2.47300
O396        O  0.24749483  0.18216264  0.86013284    -0.79300
O397        O  0.29860496  0.22257558  0.75309333    -0.71500
O398        O  0.21074797  0.22761012  0.86038423    -2.32400
O399        O  0.29674550  0.21966153  0.83653004    -2.28700
O400        O  0.21175374  0.22978082  0.77703281    -0.73200
H401        H  0.26570874  0.28367937  0.73132572     0.78700
H402        H  0.19388330  0.22860033  0.88327196     0.79800
H403        H  0.24635650  0.16939475  0.76570318     0.82100
H404        H  0.31302866  0.21762374  0.85003489     0.79700
H405        H  0.15971268  0.26759925  0.85294137     0.42700
H406        H  0.15140270  0.20583004  0.81640474     0.41700
H407        H  0.21356217  0.13121683  0.86074477     0.41400
H408        H  0.30407523  0.12441493  0.82714442     0.39300
H409        H  0.34962921  0.19734008  0.76288190     0.42400
H410        H  0.35838388  0.24675879  0.80099271     0.37200
H411        H  0.33293295  0.31495699  0.75388513     0.43300
H412        H  0.20481422  0.32516346  0.80396441     0.39700
H413        H  0.27089518  0.12508357  0.84714870     0.44700
H414        H  0.36472825  0.27275930  0.76236936     0.43400
H415        H  0.23722381  0.32393265  0.80702944     0.43500
H416        H  0.14488340  0.17672286  0.84800756     0.43900
C417        C  0.17200781  0.12148951  0.68998464    -0.26000
C418        C  0.15330673  0.13370202  0.66449907    -0.14100
C419        C  0.15082206  0.16258632  0.65801161     0.36500
C420        C  0.16743801  0.17852430  0.67635892    -0.25500
C421        C  0.18545772  0.16598785  0.70274987    -0.14700
C422        C  0.18768240  0.13725632  0.70959188     0.37600
N423        N  0.20545394  0.12394562  0.73730806    -0.89000
H424        H  0.17359182  0.09932483  0.69611798     0.18700
H425        H  0.16503319  0.20053066  0.67206935     0.18700
N426        N  0.13014688  0.17597014  0.63598545    -0.88000
H427        H  0.22047189  0.11310464  0.71906020     0.36100
H428        H  0.19227467  0.10960346  0.76305587     0.41200
H429        H  0.10970743  0.16618061  0.65106770     0.40800
H430        H  0.13547676  0.17401555  0.60337449     0.35700
C431        C  0.13224097  0.14313937  0.53898855    -0.26000
C432        C  0.14665092  0.12976580  0.57035053    -0.14100
C433        C  0.17710023  0.13135776  0.56014359     0.36500
C434        C  0.19227788  0.14534542  0.01724504    -0.25500
C435        C  0.17759221  0.16016147  0.98752475    -0.14700
C436        C  0.14700568  0.15846398  0.99816769     0.37600
N437        N  0.13137634  0.17316520  0.96806494    -0.89000
H438        H  0.10884097  0.14176453  0.54673549     0.18700
H439        H  0.21568659  0.14583916  0.00876289     0.18700
N440        N  0.19242966  0.11559620  0.58938535    -0.88000
H441        H  0.10919161  0.17117638  0.98230192     0.36100
H442        H  0.13412414  0.16357819  0.94134731     0.41200
H443        H  0.20652563  0.12918519  0.59707622     0.40800
H444        H  0.20492487  0.10221801  0.57270190     0.35700
C445        C  0.05646832  0.06366403  0.56353644    -0.26000
C446        C  0.07518208  0.05595891  0.52787548    -0.14100
C447        C  0.10473362  0.06547756  0.51706784     0.36500
C448        C  0.11534637  0.07880708  0.54575146    -0.25500
C449        C  0.09679862  0.08462429  0.58329090    -0.14700
C450        C  0.06678721  0.07856922  0.59041239     0.37600
N451        N  0.04692042  0.08712444  0.62559157    -0.89000
H452        H  0.03366918  0.05728701  0.57128240     0.18700
H453        H  0.13835084  0.08385235  0.53919552     0.18700
N454        N  0.12178473  0.06200459  0.97568260    -0.88000
H455        H  0.02563066  0.08100049  0.62649630     0.36100
H456        H  0.04833072  0.10868957  0.61878058     0.41200
H457        H  0.11062231  0.05359787  0.95626852     0.40800
H458        H  0.13725959  0.04833855  0.98338027     0.35700
C459        C  0.43637576  0.06530753  0.52134426    -0.26000
C460        C  0.43962080  0.04768630  0.99211859    -0.14100
C461        C  0.41631444  0.04300165  0.97312597     0.36500
C462        C  0.39024850  0.05820025  0.48304526    -0.25500
C463        C  0.38688942  0.07340595  0.51608270    -0.14700
C464        C  0.41092608  0.07854881  0.53286237     0.37600
N465        N  0.40844713  0.09492783  0.56535901    -0.89000
H466        H  0.45333658  0.06716735  0.53837832     0.18700
H467        H  0.37179728  0.05413554  0.47015025     0.18700
N468        N  0.41869912  0.02416193  0.94401669    -0.88000
H469        H  0.42458427  0.11096926  0.55388999     0.36100
H470        H  0.41232990  0.08261408  0.59388872     0.41200
H471        H  0.43491338  0.03249511  0.91611315     0.40800
H472        H  0.39959031  0.02270204  0.93345360     0.35700
C473        C  0.33170233  0.14527768  0.66367258    -0.26000
C474        C  0.30488594  0.15668873  0.66524844    -0.14100
C475        C  0.28692244  0.14936132  0.63893049     0.36500
C476        C  0.29580849  0.12984407  0.61307081    -0.25500
C477        C  0.32220741  0.11785691  0.61301917    -0.14700
C478        C  0.34046826  0.12603773  0.63781268     0.37600
N479        N  0.36783419  0.11440071  0.63736147    -0.89000
H480        H  0.34574756  0.15093241  0.68329763     0.18700
H481        H  0.28187015  0.12343107  0.59389121     0.18700
N482        N  0.25938222  0.16094673  0.63974903    -0.88000
H483        H  0.36808901  0.10481724  0.66953659     0.36100
H484        H  0.38390335  0.13052271  0.62671508     0.41200
H485        H  0.24677684  0.15466344  0.67163378     0.40800
H486        H  0.24863782  0.15291941  0.61940915     0.35700
C487        C  0.32582292  0.16357752  0.97300528    -0.26000
C488        C  0.31014132  0.15134279  0.94861317    -0.14100
C489        C  0.30894412  0.12234973  0.95373282     0.36500
C490        C  0.31950665  0.10487997  0.48775221    -0.25500
C491        C  0.33788784  0.11838406  0.00890987    -0.14700
C492        C  0.33995413  0.14736759  0.00260275     0.37600
N493        N  0.35671454  0.16039994  0.02573548    -0.89000
H494        H  0.32758155  0.18582007  0.96846195     0.18700
H495        H  0.31696282  0.08261211  0.49339469     0.18700
N496        N  0.29300362  0.10926680  0.92928488    -0.88000
H497        H  0.34327952  0.17271541  0.04343682     0.36100
H498        H  0.37291682  0.17340731  0.00255767     0.41200
H499        H  0.27122568  0.11299645  0.93951878     0.40800
H500        H  0.28912322  0.08675666  0.44287788     0.35700
C501        C  0.09580463  0.40267685  0.51245132    -0.26000
C502        C  0.09832626  0.42398101  0.47551721    -0.14100
C503        C  0.12356030  0.42986697  0.94712535     0.36500
C504        C  0.14768465  0.41247414  0.44838146    -0.25500
C505        C  0.14585314  0.39246112  0.48705237    -0.14700
C506        C  0.11947674  0.38746855  0.51905312     0.37600
N507        N  0.11755753  0.36906459  0.56041878    -0.89000
H508        H  0.07614295  0.39953958  0.53823374     0.20700
H509        H  0.16820152  0.41707378  0.42453227     0.18700
N510        N  0.12622950  0.45261075  0.91031836    -0.88000
H511        H  0.10032664  0.35451304  0.56558684     0.36100
H512        H  0.11275071  0.38042301  0.58501980     0.41200
H513        H  0.11172181  0.44824040  0.89208305     0.40800
H514        H  0.14690184  0.45424858  0.88969141     0.35700
C515        C  0.18551021  0.29844163  0.64587426    -0.26000
C516        C  0.21250066  0.30167496  0.65542260    -0.14100
C517        C  0.23332737  0.32201025  0.62737021     0.36500
C518        C  0.22600071  0.33943978  0.59183417    -0.25500
C519        C  0.19848796  0.33722329  0.58341061    -0.14700
C520        C  0.17827735  0.31597342  0.61022935     0.37600
N521        N  0.14982144  0.31253937  0.60365357    -0.89000
H522        H  0.16979554  0.28242591  0.66666477     0.18700
H523        H  0.24175879  0.35549099  0.57123599     0.18700
N524        N  0.26190674  0.32587092  0.63398191    -0.88000
H525        H  0.15146353  0.30884490  0.57227101     0.36100
H526        H  0.13957739  0.33075821  0.60610644     0.41200
H527        H  0.26533366  0.31190727  0.66115385     0.40800
H528        H  0.26391705  0.34552904  0.64048494     0.35700
C529        C  0.17511441  0.30504922  0.94853468    -0.26000
C530        C  0.20297506  0.29542410  0.94483461    -0.14100
C531        C  0.22172249  0.30582420  0.96694158     0.36500
C532        C  0.21423064  0.32800240  0.48589627    -0.25500
C533        C  0.18557558  0.33632377  0.49259539    -0.14700
C534        C  0.16570209  0.32500094  0.97317688     0.37600
N535        N  0.13680793  0.33302800  0.97546761    -0.89000
H536        H  0.16056372  0.29722644  0.93150069     0.18700
H537        H  0.22993736  0.33814084  0.49824280     0.18700
N538        N  0.25040699  0.29640107  0.96378302    -0.88000
H539        H  0.13745922  0.35301361  0.95709256     0.36100
H540        H  0.12719015  0.32913407  0.51242593     0.41200
H541        H  0.26187402  0.30278868  0.93112328     0.40800
H542        H  0.26135470  0.30573916  0.98254179     0.35700
C543        C  0.43108990  0.40331308  0.98463237    -0.26000
C544        C  0.45188544  0.40426621  0.00926760    -0.14100
C545        C  0.45869143  0.38084352  0.53240733     0.36500
C546        C  0.44423855  0.35590026  0.53327406    -0.25500
C547        C  0.42566930  0.35332536  0.00731179    -0.14700
C548        C  0.41771973  0.37806190  0.98370394     0.37600
N549        N  0.39800429  0.37716647  0.95587930    -0.89000
H550        H  0.42676505  0.42209559  0.96369742     0.18700
H551        H  0.44925831  0.33703335  0.55324659     0.18700
N552        N  0.47746268  0.38093637  0.56167116    -0.88000
H553        H  0.39506137  0.39706995  0.93965315     0.36100
H554        H  0.37790437  0.36929373  0.97611320     0.41200
H555        H  0.47110791  0.39589507  0.58004272     0.40800
H556        H  0.49867026  0.38613291  0.54358437     0.35700
C557        C  0.38423652  0.29679135  0.58152407    -0.26000
C558        C  0.37322290  0.30826709  0.54512844    -0.14100
C559        C  0.34303008  0.30849837  0.55026904     0.36500
C560        C  0.32451573  0.29578565  0.59067834    -0.25500
C561        C  0.33563851  0.28374000  0.62677586    -0.14700
C562        C  0.36588907  0.28449761  0.62212262     0.37600
N563        N  0.37794066  0.27168193  0.65808046    -0.89000
H564        H  0.40740562  0.29609775  0.57748724     0.18700
H565        H  0.30137675  0.29543176  0.59384219     0.18700
N566        N  0.33110315  0.32176843  0.51473161    -0.88000
H567        H  0.40050905  0.27413269  0.64932316     0.36100
H568        H  0.37254129  0.25048911  0.66459593     0.41200
H569        H  0.31837095  0.33575087  0.02541448     0.40800
H570        H  0.31738734  0.30727128  0.50825567     0.35700
C571        C  0.36403430  0.30785262  0.92242094    -0.26000
C572        C  0.37044045  0.28947296  0.95800259    -0.14100
C573        C  0.35474810  0.26376156  0.97441124     0.36500
C574        C  0.33363527  0.25652807  0.95375836    -0.25500
C575        C  0.32844721  0.27426155  0.91628472    -0.14700
C576        C  0.34314346  0.30059311  0.90140486     0.37600
N577        N  0.33708342  0.31969522  0.86473063    -0.89000
H578        H  0.37595888  0.32776733  0.91039132     0.18700
H579        H  0.32233654  0.23633845  0.96565900     0.18700
N580        N  0.36050581  0.24435490  0.01075437    -0.88000
H581        H  0.35003870  0.33800830  0.85774488     0.36100
H582        H  0.31569457  0.32487157  0.87398538     0.41200
H583        H  0.35711377  0.25349246  0.03797507     0.40800
H584        H  0.38223271  0.23994313  0.00292857     0.35700
N585        N  0.38974210  0.81816103  0.00513362    -0.03200
C586        C  0.41614354  0.83155807  0.99749059    -0.00600
C587        C  0.43547304  0.82039312  0.46275564    -0.23500
C588        C  0.41996692  0.80206238  0.44864018    -0.23700
C589        C  0.39234980  0.79942390  0.47491618    -0.00700
H590        H  0.45706681  0.82928916  0.44659397     0.13100
H591        H  0.42713422  0.79390380  0.41938857     0.13100
N592        N  0.17775586  0.85675183  0.02170968    -0.03200
C593        C  0.17254392  0.88329189  0.00445047    -0.00600
C594        C  0.18470130  0.90160844  0.02374596    -0.23500
C595        C  0.19600189  0.88640894  0.05569536    -0.23700
C596        C  0.19098472  0.85919613  0.05454873    -0.00700
H597        H  0.18183275  0.92352848  0.01950080     0.13100
H598        H  0.20536306  0.89426911  0.07903109     0.13100
N599        N  0.34566779  0.59958825  0.04684202    -0.03200
C600        C  0.35782015  0.57529371  0.04346100    -0.00600
C601        C  0.34785395  0.55577016  0.08185652    -0.23500
C602        C  0.32959170  0.56847804  0.11023898    -0.23700
C603        C  0.32878194  0.59528733  0.08815751    -0.00700
H604        H  0.35609308  0.53567866  0.09036745     0.13100
H605        H  0.32060753  0.56007748  0.14476668     0.13100
N606        N  0.02249954  0.94516627  0.49169643    -0.36300
N607        N  0.47492771  0.98062935  0.48950973    -0.56900
N608        N  0.01565926  0.52514450  0.49333721    -0.36300
N609        N  0.06344685  0.99075684  0.48738411    -0.56900
C610        C  0.50166302  0.92879309  0.48230398     0.27300
C611        C  0.04781761  0.93505228  0.47508443     0.27300
C612        C  0.99385421  0.53981572  0.48180575     0.27300
C613        C  0.03663458  0.54348280  0.99148676     0.27300
C614        C  0.45987315  0.95583260  0.50371524     0.35900
C615        C  0.45890750  0.49922616  0.49862560     0.35900
C616        C  0.07985847  0.96890167  0.49245189     0.35900
C617        C  0.07174179  0.00972006  0.00638500     0.35900
C618        C  0.51429031  0.90811579  0.46261182    -0.21600
C619        C  0.04246023  0.91189722  0.45933866    -0.21600
C620        C  0.00338640  0.56750131  0.46764135    -0.21600
C621        C  0.02917641  0.57012104  0.97772294    -0.21600
C622        C  0.43117420  0.95921804  0.52156465    -0.22700
C623        C  0.43177282  0.48636696  0.51910381    -0.22700
C624        C  0.09918197  0.97433664  0.01577892    -0.22700
C625        C  0.09440800  0.00002600  0.02472124    -0.22700
C626        C  0.47166985  0.93049558  0.49817880    -0.18000
C627        C  0.07503279  0.94381068  0.47992850    -0.18000
C628        C  0.06197414  0.53632694  0.00600367    -0.18000
C629        C  0.46610632  0.52799279  0.48954669    -0.18000
H630        H  0.50337279  0.89132020  0.45438143     0.14900
H631        H  0.05820771  0.89874761  0.44533051     0.14900
H632        H  0.99099945  0.58461142  0.45710925     0.14900
H633        H  0.04231329  0.58900292  0.97288670     0.14900
H634        H  0.41387485  0.94330348  0.53551575     0.13200
H635        H  0.41237210  0.49589366  0.53215215     0.13200
H636        H  0.11514074  0.96082691  0.02598382     0.13200
H637        H  0.10619258  0.01015069  0.04301350     0.13200
H638        H  0.01975010  0.95990564  0.51093210     0.26400
H639        H  0.01388186  0.50483875  0.51074095     0.26400
N640        N  0.12967416  0.61172998  0.11361272    -0.03200
C641        C  0.10830145  0.59169012  0.12001425    -0.00600
C642        C  0.09978632  0.57929094  0.16415669    -0.23500
C643        C  0.11569868  0.59242990  0.18568752    -0.23700
C644        C  0.13355995  0.61246265  0.15422825    -0.00700
H645        H  0.08404257  0.56209641  0.17916808     0.13100
H646        H  0.11439295  0.58788092  0.22063976     0.13100
O647        O  0.31484101  0.77079082  0.35127254    -0.75000
O648        O  0.28723005  0.74474614  0.41476324    -0.53900
C649        C  0.30791827  0.76260461  0.39334443     0.78700
O650        O  0.21026854  0.78553862  0.23478207    -0.59600
O651        O  0.23284192  0.76029655  0.18619904    -0.52600
C652        C  0.21829950  0.78052998  0.19593815     0.70700
O653        O  0.20670326  0.78194149  0.37823691    -0.74200
O654        O  0.22747174  0.75489047  0.42824594    -0.54700
C655        C  0.21287645  0.77556561  0.41602281     0.76700
O656        O  0.32032350  0.77414522  0.20755723    -0.59300
O657        O  0.29304035  0.75333995  0.17149819    -0.52400
C658        C  0.31437609  0.76940258  0.17231671     0.73300
Zr659      Zr  0.30167332  0.75997194  0.28676897     2.54700
O660        O  0.30932952  0.80998194  0.27164502    -0.79900
O661        O  0.35362682  0.75561972  0.27484068    -0.93300
Zr662      Zr  0.21628626  0.76611698  0.30928732     2.64700
O663        O  0.21893544  0.81635817  0.29308449    -0.98200
O664        O  0.16368157  0.76423637  0.32555610    -0.80300
O665        O  0.25809655  0.76232484  0.33880651    -0.83700
O666        O  0.26022854  0.76499007  0.25746786    -2.18400
O667        O  0.30001805  0.66521622  0.23699149    -0.67100
O668        O  0.27866261  0.69266101  0.18841417    -0.51600
C669        C  0.29350358  0.67220277  0.19931523     0.71700
O670        O  0.18914695  0.66802410  0.41340471    -0.60000
O671        O  0.21675402  0.68893120  0.44899594    -0.51900
C672        C  0.19614325  0.67202212  0.44837509     0.73500
O673        O  0.19256359  0.67239956  0.27012392    -0.71400
O674        O  0.21946340  0.69889587  0.20617394    -0.50000
C675        C  0.20001510  0.67976919  0.22797644     0.74900
O676        O  0.30062061  0.66137977  0.38031740    -0.66700
O677        O  0.28017000  0.68689125  0.42983897    -0.53900
C678        C  0.29575466  0.66735664  0.41854429     0.73300
Zr679      Zr  0.28996557  0.67853652  0.30873862     2.77500
O680        O  0.28295037  0.62844263  0.32367127    -0.97400
O681        O  0.34220522  0.67593165  0.29139839    -0.78300
Zr682      Zr  0.20488742  0.68486291  0.33400280     2.70100
O683        O  0.19830489  0.63479879  0.34794023    -0.79500
O684        O  0.15295120  0.68978182  0.34831458    -0.98600
Zr685      Zr  0.25181529  0.71982581  0.39164128     2.21500
Zr686      Zr  0.25498416  0.72513739  0.22851239     2.11100
O687        O  0.24794159  0.68258590  0.28106383    -2.47300
O688        O  0.24675969  0.67985009  0.36268982    -0.79300
O689        O  0.29772063  0.72069795  0.25590472    -0.71500
O690        O  0.20916219  0.72441782  0.36372750    -2.32400
O691        O  0.29563929  0.71774510  0.33873373    -2.28700
O692        O  0.21044122  0.72670944  0.28009479    -0.73200
H693        H  0.26353970  0.78158836  0.23489299     0.78700
H694        H  0.19240697  0.72510752  0.38697068     0.79800
H695        H  0.24575105  0.66710375  0.26782409     0.82100
H696        H  0.31196389  0.71594226  0.35215469     0.79700
H697        H  0.15759162  0.76087020  0.35797089     0.42700
H698        H  0.14444037  0.67320704  0.37096362     0.41700
H699        H  0.17726035  0.63095726  0.35214689     0.41400
H700        H  0.26986496  0.62341974  0.35326849     0.39300
H701        H  0.34984307  0.69349151  0.29596760     0.42400
H702        H  0.35777545  0.74232768  0.25534610     0.37200
H703        H  0.29142975  0.81696064  0.26376529     0.43300
H704        H  0.20114910  0.82142205  0.31188654     0.39700
H705        H  0.27092727  0.62464980  0.30373169     0.44700
H706        H  0.35665155  0.74553277  0.30336424     0.43400
H707        H  0.23482237  0.82169633  0.30571849     0.43500
H708        H  0.14981958  0.70518630  0.36387197     0.43900
C709        C  0.17277239  0.61916066  0.19072743    -0.26000
C710        C  0.15379090  0.63126319  0.16564057    -0.14100
C711        C  0.15134600  0.66016670  0.15891980     0.36500
C712        C  0.16803473  0.67616750  0.17703086    -0.25500
C713        C  0.18601186  0.66369152  0.20352384    -0.14700
C714        C  0.18858747  0.63503763  0.20999115     0.37600
N715        N  0.20697961  0.62196009  0.23682240    -0.89000
H716        H  0.17449471  0.59701352  0.19679554     0.18700
H717        H  0.16558228  0.69816740  0.17270057     0.18700
N718        N  0.13049989  0.67351813  0.13723288    -0.88000
H719        H  0.22211613  0.61158072  0.21790192     0.36100
H720        H  0.19428932  0.60729154  0.26262862     0.41200
H721        H  0.11011668  0.66361574  0.15234321     0.40800
H722        H  0.13578546  0.67184018  0.10451300     0.35700
C723        C  0.13187119  0.64229302  0.04162117    -0.26000
C724        C  0.14617764  0.62761492  0.07213162    -0.14100
C725        C  0.17662035  0.62819067  0.06121300     0.36500
C726        C  0.19344161  0.64197416  0.52190707    -0.25500
C727        C  0.17909714  0.65597626  0.49092816    -0.14700
C728        C  0.14860034  0.65397954  0.50051873     0.37600
N729        N  0.13349719  0.66763909  0.46886997    -0.89000
H730        H  0.10848887  0.64193226  0.04970790     0.18700
H731        H  0.21685975  0.64279604  0.51430118     0.18700
N732        N  0.19174368  0.61176264  0.09008403    -0.88000
H733        H  0.13779786  0.68887670  0.46456056     0.36100
H734        H  0.11115936  0.66380062  0.48081084     0.41200
H735        H  0.20641166  0.62486138  0.09762830     0.40800
H736        H  0.20359666  0.59811792  0.07318453     0.35700
C737        C  0.05576133  0.56112281  0.06659336    -0.26000
C738        C  0.07416740  0.55529952  0.02910616    -0.14100
C739        C  0.10359852  0.56518063  0.01800874     0.36500
C740        C  0.11429057  0.57798975  0.04710841    -0.25500
C741        C  0.09606681  0.58240657  0.08594796    -0.14700
C742        C  0.06618523  0.57497470  0.09456973     0.37600
N743        N  0.04656968  0.58089907  0.13242393    -0.89000
H744        H  0.03316040  0.55392234  0.07495270     0.18700
H745        H  0.13723149  0.58345415  0.03995928     0.18700
N746        N  0.12580766  0.56002266  0.47885613    -0.88000
H747        H  0.02544802  0.57368516  0.13439428     0.36100
H748        H  0.04646454  0.60234268  0.12824172     0.41200
H749        H  0.11558078  0.55223826  0.45777630     0.40800
H750        H  0.14060367  0.54593425  0.48785520     0.35700
C751        C  0.43654076  0.56564041  0.02052120    -0.26000
C752        C  0.44195448  0.54717447  0.49226339    -0.14100
C753        C  0.41956272  0.54538303  0.47013700     0.36500
C754        C  0.38998675  0.55760329  0.98358063    -0.25500
C755        C  0.38685246  0.57307786  0.01621586    -0.14700
C756        C  0.41104103  0.57880883  0.03215796     0.37600
N757        N  0.40881492  0.59598332  0.06352397    -0.89000
H758        H  0.45375053  0.56792907  0.03690696     0.18700
H759        H  0.37142350  0.55332940  0.97107172     0.18700
N760        N  0.42265535  0.52916079  0.43714113    -0.88000
H761        H  0.42472235  0.61217430  0.05083871     0.36100
H762        H  0.41322198  0.58434418  0.09217658     0.41200
H763        H  0.43980526  0.53842192  0.41122786     0.40800
H764        H  0.40422817  0.52967303  0.42441783     0.35700
C765        C  0.32976860  0.64296255  0.16559343    -0.26000
C766        C  0.30325501  0.65495015  0.16681497    -0.14100
C767        C  0.28595245  0.64899113  0.13869879     0.36500
C768        C  0.29486157  0.63009437  0.11177752    -0.25500
C769        C  0.32087583  0.61743742  0.11218282    -0.14700
C770        C  0.33874189  0.62448974  0.13837695     0.37600
N771        N  0.36596223  0.61253558  0.13781487    -0.89000
H772        H  0.34351275  0.64770411  0.18626947     0.18700
H773        H  0.28113759  0.62478406  0.09145517     0.18700
N774        N  0.25888308  0.66117257  0.13855701    -0.88000
H775        H  0.36585137  0.60213669  0.16973695     0.36100
H776        H  0.38211998  0.62855952  0.12846955     0.41200
H777        H  0.24273049  0.64526879  0.14614050     0.40800
H778        H  0.25971909  0.67211924  0.10667457     0.35700
C779        C  0.32596986  0.66306267  0.47413398    -0.26000
C780        C  0.30950046  0.65034941  0.45130933    -0.14100
C781        C  0.30780088  0.62131514  0.45787747     0.36500
C782        C  0.32310888  0.60583581  0.98424648    -0.25500
C783        C  0.33895944  0.61827081  0.50999165    -0.14700
C784        C  0.34083504  0.64728181  0.50308362     0.37600
N785        N  0.35796133  0.66075283  0.52520160    -0.89000
H786        H  0.32778307  0.68533422  0.46881630     0.18700
H787        H  0.32096158  0.58359416  0.98898601     0.18700
N788        N  0.29042482  0.60778148  0.43587888    -0.88000
H789        H  0.34461111  0.67296381  0.54323833     0.36100
H790        H  0.37371674  0.67390427  0.50140055     0.41200
H791        H  0.26890877  0.61189757  0.44743870     0.40800
H792        H  0.29574204  0.58804099  0.93536806     0.35700
C793        C  0.09542614  0.90207219  0.01570661    -0.26000
C794        C  0.09848705  0.92438400  0.98003178    -0.14100
C795        C  0.12336576  0.92779154  0.44589231     0.36500
C796        C  0.14808268  0.91324848  0.95354498    -0.25500
C797        C  0.14571207  0.89205147  0.99095368    -0.14700
C798        C  0.11890086  0.88636076  0.02199407     0.37600
N799        N  0.11619031  0.86648347  0.06213901    -0.89000
H800        H  0.07535427  0.89822569  0.04067522     0.20700
H801        H  0.16888472  0.91843026  0.93055218     0.18700
N802        N  0.12575604  0.94925307  0.40740215    -0.88000
H803        H  0.09887633  0.85240482  0.06528541     0.36100
H804        H  0.11100424  0.87671783  0.08811183     0.41200
H805        H  0.11037189  0.94426528  0.39100065     0.40800
H806        H  0.14596287  0.94967108  0.38592851     0.35700
C807        C  0.18558520  0.79663413  0.14768933    -0.26000
C808        C  0.21192325  0.80015051  0.15895781    -0.14100
C809        C  0.23247550  0.82143274  0.13306751     0.36500
C810        C  0.22571262  0.83903517  0.09719724    -0.25500
C811        C  0.19884355  0.83633978  0.08676988    -0.14700
C812        C  0.17870853  0.81460475  0.11223899     0.37600
N813        N  0.15053265  0.81112496  0.10473535    -0.89000
H814        H  0.16999933  0.78010275  0.16714440     0.18700
H815        H  0.24133632  0.85561816  0.07803481     0.18700
N816        N  0.26017918  0.82609335  0.14223339    -0.88000
H817        H  0.15268304  0.80737341  0.07333360     0.36100
H818        H  0.14011712  0.82928071  0.10699484     0.41200
H819        H  0.26326738  0.81184471  0.16931525     0.40800
H820        H  0.26068553  0.84546900  0.15024311     0.35700
C821        C  0.17446541  0.80217387  0.45327866    -0.26000
C822        C  0.20308685  0.79433355  0.44646878    -0.14100
C823        C  0.22271862  0.80687362  0.46484313     0.36500
C824        C  0.21462423  0.82834975  0.98702778    -0.25500
C825        C  0.18567701  0.83588667  0.99556663    -0.14700
C826        C  0.16498730  0.82212097  0.47790585     0.37600
N827        N  0.13530045  0.82821185  0.48370170    -0.89000
H828        H  0.15929908  0.79285083  0.43884535     0.18700
H829        H  0.23049251  0.83889391  0.99854773     0.18700
N830        N  0.25236403  0.79978542  0.45745479    -0.88000
H831        H  0.13398564  0.84804323  0.46605163     0.36100
H832        H  0.12728042  0.82576516  0.01953558     0.41200
H833        H  0.26164705  0.80614053  0.42386751     0.40800
H834        H  0.26400429  0.81067903  0.47347395     0.35700
C835        C  0.43237899  0.90440917  0.47983162    -0.26000
C836        C  0.45217606  0.90516155  0.50616267    -0.14100
C837        C  0.45799279  0.88104014  0.03714000     0.36500
C838        C  0.44276111  0.85662852  0.03735339    -0.25500
C839        C  0.42260863  0.85501527  0.50833328    -0.14700
C840        C  0.41728311  0.87957548  0.48102903     0.37600
N841        N  0.39840516  0.87864845  0.45196756    -0.89000
H842        H  0.42990419  0.92290872  0.45660807     0.18700
H843        H  0.44852542  0.83716992  0.05468656     0.18700
N844        N  0.47837560  0.87971314  0.06422242    -0.88000
H845        H  0.39723726  0.89833325  0.43330655     0.36100
H846        H  0.37762660  0.87252890  0.47140580     0.41200
H847        H  0.47317483  0.89390479  0.08439939     0.40800
H848        H  0.49914102  0.88512274  0.04454796     0.35700
C849        C  0.38162021  0.79973596  0.08434658    -0.26000
C850        C  0.37007539  0.80988533  0.04791684    -0.14100
C851        C  0.33976119  0.80799195  0.05342124     0.36500
C852        C  0.32196216  0.79436950  0.09391527    -0.25500
C853        C  0.33370967  0.78348704  0.12985985    -0.14700
C854        C  0.36390903  0.78666696  0.12509779     0.37600
N855        N  0.37667137  0.77567612  0.16115432    -0.89000
H856        H  0.40483747  0.80076213  0.08033510     0.18700
H857        H  0.29878996  0.79259425  0.09739091     0.18700
N858        N  0.32685990  0.82021794  0.01839776    -0.88000
H859        H  0.39905468  0.78001954  0.15239904     0.36100
H860        H  0.37325960  0.75420629  0.16790438     0.41200
H861        H  0.31480950  0.83569432  0.52677387     0.40800
H862        H  0.31406860  0.80485569  0.01215567     0.35700
C863        C  0.35945691  0.80885707  0.42547573    -0.26000
C864        C  0.36779607  0.79044525  0.45925721    -0.14100
C865        C  0.35436079  0.76366013  0.47419398     0.36500
C866        C  0.33333706  0.75553351  0.45414125    -0.25500
C867        C  0.32616656  0.77346414  0.41851759    -0.14700
C868        C  0.33878516  0.80061006  0.40498945     0.37600
N869        N  0.33078668  0.81979357  0.37034384    -0.89000
H870        H  0.36964313  0.82956874  0.41421007     0.18700
H871        H  0.32370095  0.73464034  0.46491314     0.18700
N872        N  0.36236062  0.74415560  0.50843285    -0.88000
H873        H  0.34941811  0.82653972  0.34554389     0.36100
H874        H  0.32288303  0.83683499  0.38273516     0.41200
H875        H  0.35881507  0.75240087  0.53659084     0.40800
H876        H  0.38444511  0.74146826  0.49877170     0.35700
N877        N  0.39014164  0.81551763  0.50493240    -0.03200
C878        C  0.41676911  0.82844338  0.49704451    -0.00600
C879        C  0.43467040  0.82546514  0.96123791    -0.23500
C880        C  0.41934809  0.80792676  0.94548269    -0.23700
C881        C  0.39204274  0.80372585  0.97283324    -0.00700
H882        H  0.45603995  0.83504396  0.94535219     0.13100
H883        H  0.42645987  0.80103042  0.91504473     0.13100
N884        N  0.17655056  0.85634466  0.52168809    -0.03200
C885        C  0.17189975  0.88281190  0.50320988    -0.00600
C886        C  0.18387210  0.90133623  0.52236672    -0.23500
C887        C  0.19418259  0.88635066  0.55563573    -0.23700
C888        C  0.18900434  0.85904435  0.55522556    -0.00700
H889        H  0.18124993  0.92332065  0.51728633     0.13100
H890        H  0.20314426  0.89444677  0.57913998     0.13100
N891        N  0.34944711  0.60114823  0.54487819    -0.03200
C892        C  0.36098594  0.57650255  0.54143497    -0.00600
C893        C  0.35144475  0.55735774  0.58045167    -0.23500
C894        C  0.33487106  0.57072570  0.60955578    -0.23700
C895        C  0.33423945  0.59744858  0.58718862    -0.00700
H896        H  0.35942490  0.53713130  0.58886722     0.13100
H897        H  0.32671656  0.56268029  0.64438398     0.13100
N898        N  0.02299283  0.94538708  0.98653340    -0.36300
N899        N  0.47585410  0.98116308  0.99347288    -0.56900
N900        N  0.01402696  0.52553359  0.99584817    -0.36300
N901        N  0.06231511  0.99063657  0.98708907    -0.56900
C902        C  0.50236872  0.93054621  0.98179247     0.27300
C903        C  0.04876981  0.93535603  0.97194164     0.27300
C904        C  0.99199779  0.54031595  0.98532158     0.27300
C905        C  0.03843903  0.54309575  0.48806035     0.27300
C906        C  0.46133776  0.95629171  0.00989265     0.35900
C907        C  0.45544252  0.49951356  0.99964072     0.35900
C908        C  0.07872515  0.96885143  0.99347155     0.35900
C909        C  0.07395117  0.00989341  0.50558001     0.35900
C910        C  0.51428677  0.91098820  0.95883934    -0.21600
C911        C  0.04458354  0.91259026  0.95459440    -0.21600
C912        C  0.00115984  0.56810864  0.97289768    -0.21600
C913        C  0.03135816  0.56961376  0.47263543    -0.21600
C914        C  0.43332620  0.95938636  0.03165385    -0.22700
C915        C  0.42811679  0.48692937  0.01980878    -0.22700
C916        C  0.10150261  0.97443298  0.51268336    -0.22700
C917        C  0.09733568  0.00016077  0.52196940    -0.22700
C918        C  0.47278429  0.93137733  0.00158517    -0.18000
C919        C  0.07511134  0.94391765  0.97990809    -0.18000
C920        C  0.06365159  0.53601271  0.50295007    -0.18000
C921        C  0.46283955  0.52833038  0.98922460    -0.18000
H922        H  0.50283821  0.89463207  0.95037122     0.14900
H923        H  0.06087638  0.89954184  0.94168584     0.14900
H924        H  0.98852476  0.58529051  0.96360402     0.14900
H925        H  0.04473155  0.58847774  0.46665963     0.14900
H926        H  0.41648270  0.94331099  0.04779038     0.13200
H927        H  0.40860253  0.49674759  0.03142698     0.13200
H928        H  0.11783258  0.96090136  0.52145694     0.13200
H929        H  0.11004442  0.01029305  0.53903210     0.13200
H930        H  0.01913660  0.95962660  0.00659036     0.26400
H931        H  0.01247102  0.50500009  0.01210159     0.26400
N932        N  0.13065361  0.60949203  0.61411971    -0.03200
C933        C  0.10835778  0.59037065  0.62056117    -0.00600
C934        C  0.09755774  0.58025879  0.66512770    -0.23500
C935        C  0.11313139  0.59388195  0.68664917    -0.23700
C936        C  0.13309109  0.61190216  0.65480461    -0.00700
H937        H  0.08038716  0.56439136  0.68052836     0.13100
H938        H  0.11018654  0.59100919  0.72184554     0.13100
O939        O  0.31478422  0.77155358  0.85149566    -0.75000
O940        O  0.28783560  0.74505984  0.91515690    -0.53900
C941        C  0.30820287  0.76323436  0.89357928     0.78700
O942        O  0.20955170  0.78621914  0.73598671    -0.59600
O943        O  0.23154693  0.76079280  0.68720657    -0.52600
C944        C  0.21710255  0.78109777  0.69716866     0.70700
O945        O  0.20577246  0.78134701  0.87935243    -0.74200
O946        O  0.22858414  0.75553207  0.92786551    -0.54700
C947        C  0.21302583  0.77557870  0.91639978     0.76700
O948        O  0.31992931  0.77512056  0.70732457    -0.59300
O949        O  0.29210505  0.75500992  0.67109427    -0.52400
C950        C  0.31364166  0.77072317  0.67207825     0.73300
Zr951      Zr  0.30141726  0.76134929  0.78661845     2.54700
O952        O  0.30369090  0.81151211  0.77278591    -0.79900
O953        O  0.35374799  0.75967412  0.77390094    -0.93300
Zr954      Zr  0.21638173  0.76634922  0.80974158     2.64700
O955        O  0.22247172  0.81650815  0.79470214    -0.98200
O956        O  0.16383900  0.76513448  0.82575813    -0.80300
O957        O  0.25808574  0.76279231  0.83930425    -0.83700
O958        O  0.26000258  0.76542772  0.75734899    -2.18400
O959        O  0.30223576  0.66645719  0.73645612    -0.67100
O960        O  0.28152379  0.69431311  0.68747406    -0.51600
C961        C  0.29651278  0.67389386  0.69837140     0.71700
O962        O  0.18819739  0.66997393  0.91284661    -0.60000
O963        O  0.21650935  0.69020424  0.94831999    -0.51900
C964        C  0.19523649  0.67405008  0.94776919     0.73500
O965        O  0.19431520  0.67107865  0.76986446    -0.71400
O966        O  0.22039739  0.69809036  0.70580640    -0.50000
C967        C  0.20146199  0.67847173  0.72768924     0.74900
O968        O  0.30374181  0.66350700  0.87776615    -0.66700
O969        O  0.28133652  0.68721480  0.92877099    -0.53900
C970        C  0.29802604  0.66861949  0.91653392     0.73300
Zr971      Zr  0.29117387  0.67992584  0.80775256     2.77500
O972        O  0.28344495  0.62984444  0.82671320    -0.97400
O973        O  0.34355798  0.67879696  0.78725139    -0.78300
Zr974      Zr  0.20584962  0.68506195  0.83329618     2.70100
O975        O  0.19845523  0.63501397  0.85009377    -0.79500
O976        O  0.15426978  0.69078740  0.84244081    -0.98600
Zr977      Zr  0.25254066  0.72023031  0.89148522     2.21500
Zr978      Zr  0.25512922  0.72569728  0.72790556     2.11100
O979        O  0.24904086  0.68314366  0.78023322    -2.47300
O980        O  0.24785676  0.68042333  0.86194003    -0.79300
O981        O  0.29780714  0.72217188  0.75546406    -0.71500
O982        O  0.20988016  0.72447448  0.86351701    -2.32400
O983        O  0.29629603  0.71901696  0.83808501    -2.28700
O984        O  0.21081813  0.72702834  0.77997724    -0.73200
H985        H  0.26304247  0.78210137  0.73488653     0.78700
H986        H  0.19303334  0.72508279  0.88664141     0.79800
H987        H  0.24732500  0.66760500  0.76691391     0.82100
H988        H  0.31278115  0.71747589  0.85113569     0.79700
H989        H  0.15946417  0.78293976  0.80879598     0.42700
H990        H  0.14540064  0.67172460  0.84977073     0.41700
H991        H  0.21819206  0.62840398  0.84683380     0.41400
H992        H  0.27768184  0.62472828  0.80136295     0.39300
H993        H  0.34699304  0.66121165  0.77741636     0.42400
H994        H  0.35834552  0.74505702  0.75695096     0.37200
H995        H  0.32446829  0.81713511  0.76069369     0.43300
H996        H  0.20534016  0.82244688  0.81376212     0.39700
H997        H  0.30300798  0.62307452  0.82553327     0.44700
H998        H  0.35749420  0.75162525  0.80292671     0.43400
H999        H  0.23884569  0.82042360  0.80741129     0.43500
H1000       H  0.14840176  0.69753616  0.86999659     0.43900
C1001       C  0.17229900  0.61780330  0.69192812    -0.26000
C1002       C  0.15396525  0.63028466  0.66596413    -0.14100
C1003       C  0.15286308  0.65936167  0.65784374     0.36500
C1004       C  0.16987453  0.67509023  0.67596251    -0.25500
C1005       C  0.18722019  0.66231649  0.70333813    -0.14700
C1006       C  0.18880015  0.63349358  0.71062766     0.37600
N1007       N  0.20696355  0.62006007  0.73753642    -0.89000
H1008       H  0.17310071  0.59555193  0.69890291     0.18700
H1009       H  0.16827223  0.69723031  0.67068822     0.18700
N1010       N  0.13327874  0.67330841  0.63414147    -0.88000
H1011       H  0.22168580  0.60926501  0.71872378     0.36100
H1012       H  0.19401855  0.60572626  0.76357294     0.41200
H1013       H  0.11237692  0.66446507  0.64866351     0.40800
H1014       H  0.13899745  0.67071093  0.60188034     0.35700
C1015       C  0.13310008  0.63880639  0.54145670    -0.26000
C1016       C  0.14739865  0.62489125  0.57250447    -0.14100
C1017       C  0.17783581  0.62591632  0.56208042     0.36500
C1018       C  0.19221755  0.64406403  0.02099446    -0.25500
C1019       C  0.17793721  0.65859768  0.99047462    -0.14700
C1020       C  0.14749895  0.65758835  0.00081855     0.37600
N1021       N  0.13245726  0.67256907  0.97037618    -0.89000
H1022       H  0.10970207  0.63789621  0.54945649     0.18700
H1023       H  0.21561516  0.64430539  0.01298231     0.18700
N1024       N  0.19290448  0.60981236  0.59138900    -0.88000
H1025       H  0.11980800  0.68638304  0.98580812     0.36100
H1026       H  0.11859021  0.65853416  0.96317791     0.41200
H1027       H  0.20722851  0.62314140  0.59916524     0.40800
H1028       H  0.20513255  0.59626857  0.57473113     0.35700
C1029       C  0.05676652  0.56191103  0.56265525    -0.26000
C1030       C  0.07572808  0.55482705  0.52667800    -0.14100
C1031       C  0.10552504  0.56309412  0.51808205     0.36500
C1032       C  0.11583163  0.57485439  0.54866376    -0.25500
C1033       C  0.09691730  0.58053504  0.58602046    -0.14700
C1034       C  0.06687057  0.57519600  0.59166414     0.37600
N1035       N  0.04665257  0.58295169  0.62726456    -0.89000
H1036       H  0.03388003  0.55619211  0.56906169     0.18700
H1037       H  0.13889211  0.57902771  0.54344046     0.18700
N1038       N  0.12320636  0.56238407  0.97801161    -0.88000
H1039       H  0.02542050  0.57744302  0.62692337     0.36100
H1040       H  0.04839033  0.60446334  0.62213445     0.41200
H1041       H  0.11272677  0.55346344  0.95834016     0.40800
H1042       H  0.13898221  0.54925601  0.98627681     0.35700
C1043       C  0.43947714  0.56500565  0.52158506    -0.26000
C1044       C  0.43883547  0.54763001  0.99148492    -0.14100
C1045       C  0.41620948  0.54553149  0.96993741     0.36500
C1046       C  0.39356981  0.55810677  0.48269226    -0.25500
C1047       C  0.39027375  0.57376969  0.51511481    -0.14700
C1048       C  0.41416874  0.57867938  0.53236997     0.37600
N1049       N  0.41172005  0.59550935  0.56426163    -0.89000
H1050       H  0.45643331  0.56689194  0.53861976     0.18700
H1051       H  0.37521419  0.55419482  0.46948937     0.18700
N1052       N  0.41930014  0.52955695  0.93662293    -0.88000
H1053       H  0.42807732  0.61133974  0.55258134     0.36100
H1054       H  0.41527129  0.58342486  0.59319815     0.41200
H1055       H  0.43608436  0.53924757  0.91045290     0.40800
H1056       H  0.40065852  0.52980611  0.92445003     0.35700
C1057       C  0.33361192  0.64479545  0.66567446    -0.26000
C1058       C  0.30729560  0.65706744  0.66546726    -0.14100
C1059       C  0.29090723  0.65156145  0.63584101     0.36500
C1060       C  0.30063071  0.63289775  0.60873876    -0.25500
C1061       C  0.32632486  0.61993069  0.61058519    -0.14700
C1062       C  0.34329097  0.62652102  0.63832141     0.37600
N1063       N  0.37026184  0.61428930  0.63919744    -0.89000
H1064       H  0.34659770  0.64910728  0.68764393     0.18700
H1065       H  0.28768244  0.62770112  0.58730460     0.18700
N1066       N  0.26390795  0.66391160  0.63469225    -0.88000
H1067       H  0.36930259  0.60359703  0.67125931     0.36100
H1068       H  0.38651552  0.63016520  0.63105855     0.41200
H1069       H  0.24960775  0.65602424  0.66487940     0.40800
H1070       H  0.25484641  0.65796923  0.61081084     0.35700
C1071       C  0.32632651  0.66305413  0.97475079    -0.26000
C1072       C  0.31137950  0.65111189  0.94914331    -0.14100
C1073       C  0.31004665  0.62219177  0.95369926     0.36500
C1074       C  0.32258180  0.60567366  0.48689168    -0.25500
C1075       C  0.33745390  0.61758863  0.01068222    -0.14700
C1076       C  0.33955578  0.64649979  0.00520165     0.37600
N1077       N  0.35519953  0.65904555  0.03032789    -0.89000
H1078       H  0.32797659  0.68525879  0.97080407     0.18700
H1079       H  0.32038141  0.58337547  0.49295746     0.18700
N1080       N  0.29460622  0.60945825  0.92822480    -0.88000
H1081       H  0.34118886  0.67107378  0.04777975     0.36100
H1082       H  0.37180950  0.67226568  0.00843395     0.41200
H1083       H  0.27279574  0.61328405  0.93774322     0.40800
H1084       H  0.29145919  0.58638309  0.44416747     0.35700
C1085       C  0.09521470  0.90233625  0.51624713    -0.26000
C1086       C  0.09789563  0.92380993  0.47952173    -0.14100
C1087       C  0.12475354  0.92967524  0.94800668     0.36500
C1088       C  0.14678665  0.91149680  0.45153825    -0.25500
C1089       C  0.14493528  0.89141846  0.49017415    -0.14700
C1090       C  0.11856985  0.88649040  0.52220442     0.37600
N1091       N  0.11632889  0.86731512  0.56291955    -0.89000
H1092       H  0.07562257  0.89931677  0.54215135     0.20700
H1093       H  0.16720135  0.91585786  0.42741419     0.18700
N1094       N  0.12804938  0.95266827  0.91144579    -0.88000
H1095       H  0.09885799  0.85316133  0.56732652     0.36100
H1096       H  0.11172500  0.87813226  0.58823504     0.41200
H1097       H  0.11368595  0.94875578  0.89270230     0.40800
H1098       H  0.14882747  0.95409331  0.89119646     0.35700
C1099       C  0.18339554  0.79758306  0.65047734    -0.26000
C1100       C  0.21027275  0.80070382  0.66041437    -0.14100
C1101       C  0.23094111  0.82152147  0.63329688     0.36500
C1102       C  0.22387999  0.83892728  0.59749418    -0.25500
C1103       C  0.19667598  0.83645830  0.58809853    -0.14700
C1104       C  0.17632459  0.81527584  0.61482999     0.37600
N1105       N  0.14786970  0.81205434  0.60818578    -0.89000
H1106       H  0.16764845  0.78148396  0.67092730     0.18700
H1107       H  0.23963668  0.85513163  0.57738132     0.18700
N1108       N  0.25912596  0.82586698  0.64104447    -0.88000
H1109       H  0.14950184  0.80857704  0.57668573     0.36100
H1110       H  0.13771972  0.83028120  0.61096854     0.41200
H1111       H  0.26233442  0.81195673  0.66841049     0.40800
H1112       H  0.26045810  0.84550274  0.64790334     0.35700
C1113       C  0.17483138  0.80191203  0.95469946    -0.26000
C1114       C  0.20359762  0.79452318  0.94663792    -0.14100
C1115       C  0.22371604  0.80788809  0.96311435     0.36500
C1116       C  0.21335205  0.82706915  0.48918956    -0.25500
C1117       C  0.18459353  0.83513508  0.49629976    -0.14700
C1118       C  0.16564305  0.82214285  0.97886861     0.37600
N1119       N  0.13580235  0.82774121  0.98598751    -0.89000
H1120       H  0.15930284  0.79199046  0.94163443     0.18700
H1121       H  0.22893307  0.83712184  0.50189645     0.18700
N1122       N  0.25352188  0.80131361  0.95429255    -0.88000
H1123       H  0.13396193  0.84765350  0.96908395     0.36100
H1124       H  0.12628785  0.82669748  0.51704514     0.41200
H1125       H  0.26198371  0.80730847  0.92042675     0.40800
H1126       H  0.26553682  0.81279696  0.96899726     0.35700
C1127       C  0.43064598  0.90658637  0.98832290    -0.26000
C1128       C  0.45322050  0.90609549  0.01007257    -0.14100
C1129       C  0.45482985  0.88103033  0.53710999     0.36500
C1130       C  0.44041753  0.85614065  0.53736038    -0.25500
C1131       C  0.42207890  0.85682877  0.01235817    -0.14700
C1132       C  0.41467504  0.88220165  0.98984708     0.37600
N1133       N  0.39273764  0.88267254  0.96536815    -0.89000
H1134       H  0.42651783  0.92579273  0.96821610     0.18700
H1135       H  0.44454151  0.83731623  0.55841034     0.18700
N1136       N  0.47231254  0.88113916  0.56814309    -0.88000
H1137       H  0.39033003  0.90287003  0.94973608     0.36100
H1138       H  0.37312057  0.87582668  0.98788698     0.41200
H1139       H  0.46534311  0.89624103  0.58594902     0.40800
H1140       H  0.49383173  0.88621492  0.55143361     0.35700
C1141       C  0.38155929  0.79784538  0.58419164    -0.26000
C1142       C  0.37036518  0.80851389  0.54763268    -0.14100
C1143       C  0.34009824  0.80805996  0.55286575     0.36500
C1144       C  0.32180680  0.79566428  0.59361776    -0.25500
C1145       C  0.33318778  0.78432066  0.62974922    -0.14700
C1146       C  0.36342890  0.78568603  0.62498936     0.37600
N1147       N  0.37572675  0.77351046  0.66101728    -0.89000
H1148       H  0.40474868  0.79757139  0.58015620     0.18700
H1149       H  0.29862910  0.79488792  0.59697483     0.18700
N1150       N  0.32782255  0.82023775  0.51711085    -0.88000
H1151       H  0.39826970  0.77635937  0.65215171     0.36100
H1152       H  0.37075742  0.75222966  0.66791405     0.41200
H1153       H  0.31311438  0.83487887  0.02922730     0.40800
H1154       H  0.31440215  0.80511548  0.51152904     0.35700
C1155       C  0.35812390  0.81154253  0.92479439    -0.26000
C1156       C  0.36756578  0.79368787  0.95804597    -0.14100
C1157       C  0.35556560  0.76635511  0.97280787     0.36500
C1158       C  0.33466148  0.75722233  0.95336449    -0.25500
C1159       C  0.32630807  0.77471576  0.91838648    -0.14700
C1160       C  0.33762852  0.80230744  0.90488493     0.37600
N1161       N  0.32850659  0.82094394  0.87074020    -0.89000
H1162       H  0.36731534  0.83261467  0.91346337     0.18700
H1163       H  0.32612482  0.73595237  0.96396689     0.18700
N1164       N  0.36505916  0.74729124  0.00604361    -0.88000
H1165       H  0.34673658  0.82836699  0.84551069     0.36100
H1166       H  0.31988307  0.83764877  0.88342582     0.41200
H1167       H  0.36132718  0.75517311  0.03454671     0.40800
H1168       H  0.38731713  0.74582527  0.99543896     0.35700
N1169       N  0.88977542  0.31771609  0.00419698    -0.03200
C1170       C  0.91587929  0.33156328  0.99583945    -0.00600
C1171       C  0.93487420  0.32361036  0.45838520    -0.23500
C1172       C  0.91950995  0.30490358  0.44478244    -0.23700
C1173       C  0.89221867  0.30145858  0.47218904    -0.00700
H1174       H  0.95622291  0.33294671  0.44173142     0.13100
H1175       H  0.92648867  0.29688114  0.41535651     0.13100
N1176       N  0.67609911  0.35566068  0.02258881    -0.03200
C1177       C  0.67092792  0.38195090  0.00412573    -0.00600
C1178       C  0.68328878  0.40084780  0.02219461    -0.23500
C1179       C  0.69429056  0.38628078  0.05499163    -0.23700
C1180       C  0.68906771  0.35887962  0.05532705    -0.00700
H1181       H  0.68048103  0.42280466  0.01686991     0.13100
H1182       H  0.70368278  0.39470477  0.07777524     0.13100
N1183       N  0.84449906  0.09762772  0.04617763    -0.03200
C1184       C  0.85623126  0.07320727  0.04243740    -0.00600
C1185       C  0.84730259  0.05404654  0.08154412    -0.23500
C1186       C  0.83055682  0.06723635  0.11079996    -0.23700
C1187       C  0.82939710  0.09394903  0.08853843    -0.00700
H1188       H  0.85579261  0.03404858  0.08985154     0.13100
H1189       H  0.82287009  0.05918970  0.14572150     0.13100
N1190       N  0.52515832  0.44491984  0.48233953    -0.36300
N1191       N  0.97558652  0.48087755  0.49264095    -0.56900
N1192       N  0.51366609  0.02479248  0.49557256    -0.36300
N1193       N  0.56566366  0.48926136  0.48341375    -0.56900
C1194       C  0.00118202  0.42857954  0.48460153     0.27300
C1195       C  0.55060537  0.43457714  0.46701203     0.27300
C1196       C  0.49202189  0.03945732  0.48322958     0.27300
C1197       C  0.53796759  0.04431618  0.98584800     0.27300
C1198       C  0.96034357  0.45627070  0.50836234     0.35900
C1199       C  0.95700649  0.00010182  0.50338668     0.35900
C1200       C  0.58177208  0.46717430  0.48855457     0.35900
C1201       C  0.57136673  0.50895109  0.00923862     0.35900
C1202       C  0.01279933  0.40749333  0.46494660    -0.21600
C1203       C  0.54568614  0.41192810  0.44980697    -0.21600
C1204       C  0.50116567  0.06726203  0.47100887    -0.21600
C1205       C  0.53045062  0.07048126  0.96930102    -0.21600
C1206       C  0.93199016  0.46010620  0.52755822    -0.22700
C1207       C  0.92981031  0.98788452  0.52529926    -0.22700
C1208       C  0.59809542  0.47312330  0.01976111    -0.22700
C1209       C  0.59378608  0.49906470  0.02802203    -0.22700
C1210       C  0.97145060  0.43078833  0.50211941    -0.18000
C1211       C  0.57727018  0.44253343  0.47459777    -0.18000
C1212       C  0.56345503  0.03806699  0.00041656    -0.18000
C1213       C  0.96448703  0.02877339  0.49083324    -0.18000
H1214       H  0.00115119  0.39051495  0.45837038     0.14900
H1215       H  0.56157734  0.39862647  0.43659338     0.14900
H1216       H  0.48877479  0.08436538  0.46046907     0.14900
H1217       H  0.54371775  0.08954543  0.96175523     0.14900
H1218       H  0.91460154  0.44440131  0.54262208     0.13200
H1219       H  0.91056432  0.99801439  0.53714192     0.13200
H1220       H  0.61386397  0.45945099  0.03019096     0.13200
H1221       H  0.60579035  0.50927645  0.04593324     0.13200
H1222       H  0.52194052  0.45908480  0.50256022     0.26400
H1223       H  0.51186894  0.00424408  0.51186549     0.26400
N1224       N  0.62743886  0.11422247  0.11165656    -0.03200
C1225       C  0.60600402  0.09452948  0.11656108    -0.00600
C1226       C  0.59492421  0.08329631  0.16065649    -0.23500
C1227       C  0.60941030  0.09681620  0.18362271    -0.23700
C1228       C  0.62897030  0.11596248  0.15303377    -0.00700
H1229       H  0.57826457  0.06677570  0.17468818     0.13100
H1230       H  0.60613601  0.09300948  0.21895915     0.13100
O1231       O  0.81599779  0.26943744  0.35026727    -0.75000
O1232       O  0.78793796  0.24397056  0.41399585    -0.53900
C1233       C  0.80881923  0.26153722  0.39241663     0.78700
O1234       O  0.71218972  0.28717223  0.23394096    -0.59600
O1235       O  0.73203219  0.26049304  0.18584432    -0.52600
C1236       C  0.71872890  0.28141926  0.19553395     0.70700
O1237       O  0.70641246  0.28165277  0.37769446    -0.74200
O1238       O  0.72785187  0.25452029  0.42681453    -0.54700
C1239       C  0.71276938  0.27497327  0.41532624     0.76700
O1240       O  0.82167623  0.27265707  0.20604286    -0.59300
O1241       O  0.79269550  0.25402053  0.16986267    -0.52400
C1242       C  0.81484318  0.26899093  0.17079978     0.73300
Zr1243     Zr  0.80297631  0.25907091  0.28526201     2.54700
O1244       O  0.81097331  0.30905797  0.26960980    -0.79900
O1245       O  0.85450385  0.25246914  0.27542970    -0.93300
Zr1246     Zr  0.71814024  0.26705977  0.30788690     2.64700
O1247       O  0.72464063  0.31698964  0.29724229    -0.98200
O1248       O  0.66581733  0.26661786  0.31866451    -0.80300
O1249       O  0.75979633  0.26202721  0.33749881    -0.83700
O1250       O  0.76162365  0.26492944  0.25572844    -2.18400
O1251       O  0.79963132  0.16471005  0.23597948    -0.67100
O1252       O  0.77977580  0.19305689  0.18646555    -0.51600
C1253       C  0.79407100  0.17218648  0.19777239     0.71700
O1254       O  0.68856682  0.16964046  0.41231871    -0.60000
O1255       O  0.71718202  0.18943140  0.44774482    -0.51900
C1256       C  0.69591795  0.17331689  0.44719796     0.73500
O1257       O  0.69072556  0.17395846  0.27005613    -0.71400
O1258       O  0.71867127  0.19890854  0.20561427    -0.50000
C1259       C  0.69828187  0.18071973  0.22787071     0.74900
O1260       O  0.80093749  0.16053194  0.37799335    -0.66700
O1261       O  0.78095421  0.18611494  0.42766289    -0.53900
C1262       C  0.79636049  0.16649585  0.41620139     0.73300
Zr1263     Zr  0.78968607  0.17828688  0.30713570     2.77500
O1264       O  0.78343431  0.12829445  0.31943466    -0.97400
O1265       O  0.84225887  0.17892573  0.28926013    -0.78300
Zr1266     Zr  0.70462545  0.18616892  0.33292388     2.70100
O1267       O  0.69495667  0.13645623  0.34680726    -0.79500
O1268       O  0.65354657  0.19508060  0.34906470    -0.98600
Zr1269     Zr  0.75256093  0.21958012  0.39033482     2.21500
Zr1270     Zr  0.75504163  0.22526000  0.22676529     2.11100
O1271       O  0.74744229  0.18300754  0.27989243    -2.47300
O1272       O  0.74658597  0.17988875  0.36127510    -0.79300
O1273       O  0.79775837  0.22020546  0.25407240    -0.71500
O1274       O  0.71008536  0.22545139  0.36242440    -2.32400
O1275       O  0.79606204  0.21702730  0.33743693    -2.28700
O1276       O  0.71111014  0.22786646  0.27880178    -0.73200
H1277       H  0.76522294  0.28153226  0.23310494     0.78700
H1278       H  0.69332961  0.22645392  0.38551957     0.79800
H1279       H  0.74488210  0.16754394  0.26679094     0.82100
H1280       H  0.81237607  0.21487748  0.35083329     0.79700
H1281       H  0.65892288  0.27280789  0.34652269     0.42700
H1282       H  0.64796260  0.19716133  0.32064952     0.41700
H1283       H  0.71104551  0.12869250  0.35933296     0.41400
H1284       H  0.80092190  0.12143755  0.32887516     0.39300
H1285       H  0.84794425  0.18222104  0.25682519     0.42400
H1286       H  0.85836662  0.23944588  0.25543633     0.37200
H1287       H  0.83132609  0.31275960  0.25280475     0.43300
H1288       H  0.74081737  0.32255592  0.27102436     0.39700
H1289       H  0.76754846  0.12297293  0.34608834     0.44700
H1290       H  0.85666754  0.24164085  0.30401120     0.43400
H1291       H  0.70737412  0.32416546  0.28744711     0.43500
H1292       H  0.64367061  0.17734394  0.36676614     0.43900
C1293       C  0.66619306  0.12086832  0.19397816    -0.26000
C1294       C  0.64930323  0.13392768  0.16606657    -0.14100
C1295       C  0.64958156  0.16313454  0.15680452     0.36500
C1296       C  0.66681318  0.17838583  0.17535521    -0.25500
C1297       C  0.68304479  0.16503688  0.20408894    -0.14700
C1298       C  0.68288450  0.13607386  0.21299386     0.37600
N1299       N  0.69962636  0.12199623  0.24169925    -0.89000
H1300       H  0.66594228  0.09854366  0.20185807     0.18700
H1301       H  0.66644020  0.20066119  0.16898906     0.18700
N1302       N  0.63126646  0.17778060  0.13137733    -0.88000
H1303       H  0.71397538  0.11021955  0.22425285     0.36100
H1304       H  0.68559315  0.10851671  0.26766520     0.41200
H1305       H  0.60998259  0.16963767  0.14463752     0.40800
H1306       H  0.63769206  0.17510087  0.09923757     0.35700
C1307       C  0.63143267  0.14316122  0.03820407    -0.26000
C1308       C  0.64492457  0.12971316  0.07067707    -0.14100
C1309       C  0.67535952  0.13103908  0.06202116     0.36500
C1310       C  0.69243896  0.14297627  0.52058310    -0.25500
C1311       C  0.67854728  0.15788280  0.48977478    -0.14700
C1312       C  0.64816766  0.15765813  0.49983724     0.37600
N1313       N  0.63352803  0.17287445  0.46903183    -0.89000
H1314       H  0.60806128  0.14232067  0.04459922     0.18700
H1315       H  0.71579198  0.14260163  0.51273818     0.18700
N1316       N  0.68978879  0.11589364  0.09313623    -0.88000
H1317       H  0.62131785  0.18712061  0.48402358     0.36100
H1318       H  0.61927429  0.15907909  0.46209786     0.41200
H1319       H  0.70343480  0.12982291  0.10101403     0.40800
H1320       H  0.70268825  0.10211892  0.07800349     0.35700
C1321       C  0.55578909  0.06597745  0.05755979    -0.26000
C1322       C  0.57518081  0.05774680  0.02307999    -0.14100
C1323       C  0.60490555  0.06626794  0.01460967     0.36500
C1324       C  0.61479343  0.07884194  0.04473165    -0.25500
C1325       C  0.59541337  0.08515081  0.08110629    -0.14700
C1326       C  0.56547179  0.08029401  0.08565169     0.37600
N1327       N  0.54498172  0.08948493  0.11945523    -0.89000
H1328       H  0.53290477  0.06036547  0.06361776     0.18700
H1329       H  0.63780071  0.08309747  0.04007962     0.18700
N1330       N  0.62333998  0.06010088  0.48243551    -0.88000
H1331       H  0.52381217  0.08430164  0.11838669     0.36100
H1332       H  0.54734213  0.11102797  0.11270988     0.41200
H1333       H  0.61313631  0.05122308  0.46241344     0.40800
H1334       H  0.63834772  0.04658138  0.49240009     0.35700
C1335       C  0.93481109  0.06430576  0.02067479    -0.26000
C1336       C  0.94050900  0.04788955  0.49212503    -0.14100
C1337       C  0.91811143  0.04515321  0.47041873     0.36500
C1338       C  0.88888979  0.05584355  0.98262141    -0.25500
C1339       C  0.88530487  0.07126776  0.01533853    -0.14700
C1340       C  0.90917516  0.07728526  0.03175007     0.37600
N1341       N  0.90640501  0.09448754  0.06317698    -0.89000
H1342       H  0.95164537  0.06660215  0.03774680     0.18700
H1343       H  0.87050710  0.05130156  0.96989120     0.18700
N1344       N  0.92148939  0.02832439  0.43821396    -0.88000
H1345       H  0.92223293  0.11076652  0.05080833     0.36100
H1346       H  0.91056499  0.08291280  0.09205419     0.41200
H1347       H  0.93832785  0.03764344  0.41184225     0.40800
H1348       H  0.90292888  0.02799340  0.42595034     0.35700
C1349       C  0.82895566  0.14015328  0.16875207    -0.26000
C1350       C  0.80436365  0.15485785  0.16537473    -0.14100
C1351       C  0.78913033  0.15112172  0.13336511     0.36500
C1352       C  0.79823195  0.13186916  0.10703650    -0.25500
C1353       C  0.82205836  0.11646180  0.11214569    -0.14700
C1354       C  0.83787509  0.12113007  0.14254184     0.37600
N1355       N  0.86287718  0.10619310  0.14735004    -0.89000
H1356       H  0.84112762  0.14303309  0.19252331     0.18700
H1357       H  0.78615846  0.12816640  0.08358939     0.18700
N1358       N  0.76385942  0.16588219  0.12888519    -0.88000
H1359       H  0.85936376  0.09534477  0.17990205     0.36100
H1360       H  0.88047769  0.12046646  0.14130331     0.41200
H1361       H  0.74786822  0.15879980  0.15762000     0.40800
H1362       H  0.75575783  0.16120149  0.10324172     0.35700
C1363       C  0.82524539  0.16177930  0.47363589    -0.26000
C1364       C  0.81002551  0.14929500  0.44891932    -0.14100
C1365       C  0.80898405  0.12031392  0.45433408     0.36500
C1366       C  0.82137828  0.10394813  0.98393465    -0.25500
C1367       C  0.83742500  0.11683535  0.51011958    -0.14700
C1368       C  0.83914063  0.14581644  0.50380119     0.37600
N1369       N  0.85517824  0.15908513  0.52762052    -0.89000
H1370       H  0.82670532  0.18401753  0.46906799     0.18700
H1371       H  0.81916192  0.08171155  0.98862942     0.18700
N1372       N  0.79323592  0.10696017  0.42994935    -0.88000
H1373       H  0.84128906  0.17125863  0.54495048     0.36100
H1374       H  0.87143535  0.17227022  0.50486789     0.41200
H1375       H  0.77141763  0.11061715  0.43997274     0.40800
H1376       H  0.79529028  0.08638268  0.93332229     0.35700
C1377       C  0.59420551  0.40151734  0.02043095    -0.26000
C1378       C  0.59656610  0.42309235  0.98391623    -0.14100
C1379       C  0.62529153  0.42550020  0.44201955     0.36500
C1380       C  0.64489984  0.41038348  0.95396659    -0.25500
C1381       C  0.64353168  0.39022302  0.99230228    -0.14700
C1382       C  0.61750771  0.38527207  0.02511404     0.37600
N1383       N  0.61553815  0.36546878  0.06509539    -0.89000
H1384       H  0.57487110  0.39848855  0.04680855     0.20700
H1385       H  0.66501864  0.41467208  0.92917376     0.18700
N1386       N  0.62765028  0.44579983  0.40217283    -0.88000
H1387       H  0.59790865  0.35153174  0.06931255     0.36100
H1388       H  0.61134109  0.37578401  0.09104814     0.41200
H1389       H  0.61239993  0.43983962  0.38629160     0.40800
H1390       H  0.64792258  0.44582366  0.38105733     0.35700
C1391       C  0.68472375  0.29744698  0.14976037    -0.26000
C1392       C  0.71172527  0.30082131  0.15904150    -0.14100
C1393       C  0.73212109  0.32180642  0.13190931     0.36500
C1394       C  0.72458642  0.33929185  0.09666230    -0.25500
C1395       C  0.69718793  0.33659836  0.08799266    -0.14700
C1396       C  0.67716374  0.31517955  0.11475003     0.37600
N1397       N  0.64850849  0.31182734  0.10897794    -0.89000
H1398       H  0.66921329  0.28119112  0.17037031     0.18700
H1399       H  0.74011543  0.35563549  0.07637844     0.18700
N1400       N  0.76046372  0.32617506  0.13908120    -0.88000
H1401       H  0.64970663  0.30850397  0.07750098     0.36100
H1402       H  0.63827069  0.32991705  0.11248361     0.41200
H1403       H  0.76405999  0.31200435  0.16591143     0.40800
H1404       H  0.76176061  0.34565475  0.14650371     0.35700
C1405       C  0.67451918  0.30145997  0.45346367    -0.26000
C1406       C  0.70303976  0.29332007  0.44640175    -0.14100
C1407       C  0.72282256  0.30515459  0.46532206     0.36500
C1408       C  0.71318851  0.32633422  0.99068354    -0.25500
C1409       C  0.68441855  0.33444428  0.99726108    -0.14700
C1410       C  0.66540818  0.32128133  0.47852234     0.37600
N1411       N  0.63558642  0.32706129  0.48589725    -0.89000
H1412       H  0.65913529  0.29237885  0.43912249     0.18700
H1413       H  0.72862633  0.33627845  0.00376525     0.18700
N1414       N  0.75210431  0.29702416  0.45900113    -0.88000
H1415       H  0.63371138  0.34680067  0.46844269     0.36100
H1416       H  0.62624910  0.32472685  0.01849829     0.41200
H1417       H  0.76196989  0.30328762  0.42560619     0.40800
H1418       H  0.76382758  0.30730448  0.47569260     0.35700
C1419       C  0.93221579  0.40645591  0.48146204    -0.26000
C1420       C  0.95127038  0.40614382  0.50916572    -0.14100
C1421       C  0.95232656  0.38257976  0.04021490     0.36500
C1422       C  0.93799135  0.35797144  0.03925324    -0.25500
C1423       C  0.92212504  0.35690878  0.50665554    -0.14700
C1424       C  0.91741717  0.38204338  0.48016340     0.37600
N1425       N  0.89955614  0.38217942  0.44939184    -0.89000
H1426       H  0.93035452  0.42543944  0.45880969     0.18700
H1427       H  0.94179638  0.33888527  0.05998264     0.18700
N1428       N  0.96900268  0.38229338  0.07237506    -0.88000
H1429       H  0.89882372  0.40220730  0.43158100     0.36100
H1430       H  0.87848392  0.37587150  0.46747399     0.41200
H1431       H  0.96156352  0.39719225  0.09036546     0.40800
H1432       H  0.99066254  0.38753707  0.05658109     0.35700
C1433       C  0.88224012  0.29766376  0.08251483    -0.26000
C1434       C  0.87055011  0.30965802  0.04711167    -0.14100
C1435       C  0.84028694  0.30945623  0.05317302     0.36500
C1436       C  0.82236312  0.29569887  0.09341929    -0.25500
C1437       C  0.83416185  0.28305630  0.12847858    -0.14700
C1438       C  0.86448925  0.28445506  0.12305599     0.37600
N1439       N  0.87724632  0.27149858  0.15814229    -0.89000
H1440       H  0.90548257  0.29733510  0.07766975     0.18700
H1441       H  0.79914981  0.29504908  0.09732192     0.18700
N1442       N  0.82771274  0.32327805  0.01870796    -0.88000
H1443       H  0.89976583  0.27463686  0.14891357     0.36100
H1444       H  0.87251821  0.25023560  0.16376991     0.41200
H1445       H  0.81510598  0.33813237  0.52698423     0.40800
H1446       H  0.81413133  0.30890419  0.01168075     0.35700
C1447       C  0.85769635  0.30969679  0.42536317    -0.26000
C1448       C  0.86752975  0.29155591  0.45786360    -0.14100
C1449       C  0.85602560  0.26404480  0.47171784     0.36500
C1450       C  0.83527263  0.25500524  0.45198119    -0.25500
C1451       C  0.82671206  0.27279051  0.41752857    -0.14700
C1452       C  0.83745837  0.30052208  0.40500862     0.37600
N1453       N  0.82806928  0.31932148  0.37133286    -0.89000
H1454       H  0.86654713  0.33089931  0.41473480     0.18700
H1455       H  0.82706009  0.23363383  0.46183491     0.18700
N1456       N  0.86587258  0.24476932  0.50430554    -0.88000
H1457       H  0.84623690  0.32726012  0.34629202     0.36100
H1458       H  0.81904780  0.33566607  0.38464854     0.41200
H1459       H  0.86222693  0.25238908  0.53307187     0.40800
H1460       H  0.88813878  0.24355469  0.49330249     0.35700
N1461       N  0.89005578  0.31740102  0.50238434    -0.03200
C1462       C  0.91640578  0.33095204  0.49358642    -0.00600
C1463       C  0.93437289  0.32520727  0.95976569    -0.23500
C1464       C  0.91922072  0.30684052  0.94520136    -0.23700
C1465       C  0.89203873  0.30255601  0.97298882    -0.00700
H1466       H  0.95544108  0.33519197  0.94303910     0.13100
H1467       H  0.92617153  0.29973117  0.91491865     0.13100
N1468       N  0.67810870  0.35581783  0.52099394    -0.03200
C1469       C  0.67365793  0.38224335  0.50226639    -0.00600
C1470       C  0.68588922  0.40085650  0.52098851    -0.23500
C1471       C  0.69644241  0.38593626  0.55405030    -0.23700
C1472       C  0.69093478  0.35862380  0.55401434    -0.00700
H1473       H  0.68341902  0.42286647  0.51566319     0.13100
H1474       H  0.70571603  0.39406730  0.57722914     0.13100
N1475       N  0.84691957  0.09936712  0.54571963    -0.03200
C1476       C  0.85860234  0.07482421  0.54228763    -0.00600
C1477       C  0.84905899  0.05560899  0.58120003    -0.23500
C1478       C  0.83221069  0.06887276  0.61022027    -0.23700
C1479       C  0.83143340  0.09560988  0.58790486    -0.00700
H1480       H  0.85722523  0.03547245  0.58966081     0.13100
H1481       H  0.82407781  0.06079689  0.64504502     0.13100
N1482       N  0.52150322  0.44478512  0.99078802    -0.36300
N1483       N  0.97443943  0.48150439  0.99302786    -0.56900
N1484       N  0.51522190  0.02600306  0.99310429    -0.36300
N1485       N  0.56156590  0.48974164  0.99056774    -0.56900
C1486       C  0.00043842  0.42921873  0.98512047     0.27300
C1487       C  0.54714413  0.43455408  0.97620152     0.27300
C1488       C  0.49301917  0.04010900  0.98170731     0.27300
C1489       C  0.53595575  0.04288532  0.49258082     0.27300
C1490       C  0.95936235  0.45680951  0.00822257     0.35900
C1491       C  0.95566496  0.99919628  0.99751747     0.35900
C1492       C  0.57752616  0.46772548  0.99757590     0.35900
C1493       C  0.57593841  0.50786253  0.50277747     0.35900
C1494       C  0.01238341  0.40804406  0.96601083    -0.21600
C1495       C  0.54277862  0.41178039  0.95899250    -0.21600
C1496       C  0.50221548  0.06775532  0.96569133    -0.21600
C1497       C  0.52867659  0.06944015  0.47777386    -0.21600
C1498       C  0.93105570  0.46022058  0.02818377    -0.22700
C1499       C  0.92855715  0.98606240  0.01741236    -0.22700
C1500       C  0.60295073  0.47204636  0.51005404    -0.22700
C1501       C  0.59889074  0.49762051  0.51984716    -0.22700
C1502       C  0.97059987  0.43152560  0.00157025    -0.18000
C1503       C  0.57351786  0.44283735  0.98418840    -0.18000
C1504       C  0.56102991  0.03594259  0.50823026    -0.18000
C1505       C  0.96238646  0.02803766  0.98840317    -0.18000
H1506       H  0.00094710  0.39120657  0.95870503     0.14900
H1507       H  0.55894232  0.39860517  0.94612479     0.14900
H1508       H  0.48951455  0.08446974  0.95467385     0.14900
H1509       H  0.54161816  0.08839038  0.47331864     0.14900
H1510       H  0.91385136  0.44433383  0.04324475     0.13200
H1511       H  0.90880439  0.99536845  0.02957796     0.13200
H1512       H  0.61899106  0.45823895  0.51911788     0.13200
H1513       H  0.61136126  0.50732633  0.53773571     0.13200
H1514       H  0.51782698  0.45912546  0.01070757     0.26400
H1515       H  0.51386498  0.00593078  0.01139935     0.26400
N1516       N  0.62887742  0.11341872  0.61336202    -0.03200
C1517       C  0.60598843  0.09492002  0.62022365    -0.00600
C1518       C  0.59498151  0.08539892  0.66488486    -0.23500
C1519       C  0.61108011  0.09872733  0.68601676    -0.23700
C1520       C  0.63152718  0.11598356  0.65384173    -0.00700
H1521       H  0.57743441  0.06996762  0.68061771     0.13100
H1522       H  0.60821944  0.09611264  0.72116266     0.13100
O1523       O  0.81579837  0.27136071  0.85067721    -0.75000
O1524       O  0.78817750  0.24528380  0.91420064    -0.53900
C1525       C  0.80868467  0.26328994  0.89279345     0.78700
O1526       O  0.71089162  0.28679252  0.73491519    -0.59600
O1527       O  0.73261489  0.26115596  0.68626538    -0.52600
C1528       C  0.71822169  0.28142200  0.69628651     0.70700
O1529       O  0.70765970  0.28259269  0.87790667    -0.74200
O1530       O  0.72877803  0.25536993  0.92731774    -0.54700
C1531       C  0.71385955  0.27591669  0.91564334     0.76700
O1532       O  0.82165557  0.27572738  0.70595001    -0.59300
O1533       O  0.79346059  0.25595233  0.66985520    -0.52400
C1534       C  0.81510327  0.27162517  0.67068636     0.73300
Zr1535     Zr  0.80315264  0.26124565  0.78537911     2.54700
O1536       O  0.80852820  0.31138224  0.77108844    -0.79900
O1537       O  0.85491460  0.25652220  0.77629814    -0.93300
Zr1538     Zr  0.71814179  0.26756337  0.80840913     2.64700
O1539       O  0.72336317  0.31777821  0.79240493    -0.98200
O1540       O  0.66559506  0.26610969  0.82497129    -0.80300
O1541       O  0.75981340  0.26319592  0.83796928    -0.83700
O1542       O  0.76172691  0.26609991  0.75617797    -2.18400
O1543       O  0.80161513  0.16627680  0.73550786    -0.67100
O1544       O  0.78114177  0.19424417  0.68633456    -0.51600
C1545       C  0.79567241  0.17352215  0.69752557     0.71700
O1546       O  0.68884143  0.17114985  0.91152742    -0.60000
O1547       O  0.71750725  0.19047957  0.94738808    -0.51900
C1548       C  0.69598822  0.17472967  0.94662929     0.73500
O1549       O  0.69409870  0.17319012  0.76883295    -0.71400
O1550       O  0.72076731  0.19979838  0.70483283    -0.50000
C1551       C  0.70135649  0.18061282  0.72670376     0.74900
O1552       O  0.80239695  0.16189955  0.87702357    -0.66700
O1553       O  0.78133622  0.18652285  0.92749586    -0.53900
C1554       C  0.79706941  0.16718580  0.91565205     0.73300
Zr1555     Zr  0.79162330  0.18030361  0.80638328     2.77500
O1556       O  0.78812804  0.13009169  0.82235380    -0.97400
O1557       O  0.84423832  0.18362106  0.78720306    -0.78300
Zr1558     Zr  0.70605755  0.18678250  0.83205085     2.70100
O1559       O  0.69426316  0.13725390  0.85016901    -0.79500
O1560       O  0.65547339  0.19710421  0.84091321    -0.98600
Zr1561     Zr  0.75327740  0.22052545  0.89030781     2.21500
Zr1562     Zr  0.75635236  0.22646411  0.72665474     2.11100
O1563       O  0.74928088  0.18403881  0.77937642    -2.47300
O1564       O  0.74814273  0.18110882  0.86024385    -0.79300
O1565       O  0.79916821  0.22234849  0.75367863    -0.71500
O1566       O  0.71072193  0.22582486  0.86247037    -2.32400
O1567       O  0.79706556  0.21898772  0.83727487    -2.28700
O1568       O  0.71213811  0.22855573  0.77836850    -0.73200
H1569       H  0.76490143  0.28274247  0.73378241     0.78700
H1570       H  0.69390745  0.22662280  0.88556453     0.79800
H1571       H  0.74716909  0.16850854  0.76619730     0.82100
H1572       H  0.81341781  0.21708038  0.85062597     0.79700
H1573       H  0.66105199  0.28497269  0.81222258     0.42700
H1574       H  0.65462868  0.20972096  0.81300837     0.41700
H1575       H  0.71083282  0.12959654  0.83254815     0.41400
H1576       H  0.77413986  0.12508544  0.80607176     0.39300
H1577       H  0.84968169  0.16459480  0.79694255     0.42400
H1578       H  0.86352820  0.27568542  0.76871960     0.37200
H1579       H  0.82958601  0.31589812  0.76010486     0.43300
H1580       H  0.70428977  0.32356511  0.80619164     0.39700
H1581       H  0.80699610  0.12492360  0.80668058     0.44700
H1582       H  0.86101634  0.24954464  0.74900845     0.43400
H1583       H  0.73648919  0.32232006  0.81034277     0.43500
H1584       H  0.64541637  0.17966636  0.84010222     0.43900
C1585       C  0.67104344  0.12081874  0.69058055    -0.26000
C1586       C  0.65302203  0.13382008  0.66453163    -0.14100
C1587       C  0.65237553  0.16291503  0.65666833     0.36500
C1588       C  0.66973258  0.17821052  0.67484536    -0.25500
C1589       C  0.68672809  0.16491711  0.70235887    -0.14700
C1590       C  0.68758700  0.13603477  0.70982617     0.37600
N1591       N  0.70488992  0.12205280  0.73772168    -0.89000
H1592       H  0.67131839  0.09852244  0.69756767     0.18700
H1593       H  0.66857903  0.20039829  0.66967950     0.18700
N1594       N  0.63283695  0.17727682  0.63331396    -0.88000
H1595       H  0.71948293  0.11082475  0.71954821     0.36100
H1596       H  0.69128401  0.10806458  0.76349410     0.41200
H1597       H  0.61184250  0.16878649  0.64818401     0.40800
H1598       H  0.63816111  0.17456308  0.60108967     0.35700
C1599       C  0.63218781  0.14300681  0.54070372    -0.26000
C1600       C  0.64600926  0.12815525  0.57162231    -0.14100
C1601       C  0.67636714  0.12768157  0.56102732     0.36500
C1602       C  0.69168017  0.14642922  0.02184085    -0.25500
C1603       C  0.67814430  0.15955928  0.98920206    -0.14700
C1604       C  0.64774067  0.15768838  0.99746146     0.37600
N1605       N  0.63332686  0.17098972  0.96486477    -0.89000
H1606       H  0.60885683  0.14339441  0.54862480     0.18700
H1607       H  0.71506673  0.14734052  0.01556819     0.18700
N1608       N  0.69081447  0.11087090  0.59049830    -0.88000
H1609       H  0.61964583  0.18489531  0.97827160     0.36100
H1610       H  0.62052777  0.15595679  0.95785466     0.41200
H1611       H  0.70591847  0.12357590  0.59789640     0.40800
H1612       H  0.70213215  0.09671312  0.57412087     0.35700
C1613       C  0.55439967  0.06402766  0.56525949    -0.26000
C1614       C  0.57332574  0.05559569  0.53052750    -0.14100
C1615       C  0.60310723  0.06424774  0.52100003     0.36500
C1616       C  0.61343982  0.07763732  0.54985478    -0.25500
C1617       C  0.59455963  0.08450003  0.58621916    -0.14700
C1618       C  0.56451966  0.07902502  0.59222157     0.37600
N1619       N  0.54434414  0.08836815  0.62620688    -0.89000
H1620       H  0.53150787  0.05820620  0.57219258     0.18700
H1621       H  0.63649773  0.08200006  0.54423464     0.18700
N1622       N  0.62544055  0.06278711  0.97589436    -0.88000
H1623       H  0.52309110  0.08259417  0.62635594     0.36100
H1624       H  0.54625663  0.10992961  0.61869082     0.41200
H1625       H  0.61543591  0.05445920  0.95508922     0.40800
H1626       H  0.64032560  0.04901996  0.98556047     0.35700
C1627       C  0.93755232  0.06556657  0.52159903    -0.26000
C1628       C  0.93781192  0.04666086  0.99103211    -0.14100
C1629       C  0.91541213  0.04423618  0.96910544     0.36500
C1630       C  0.89173616  0.05718063  0.48321311    -0.25500
C1631       C  0.88795438  0.07252830  0.51609375    -0.14700
C1632       C  0.91161816  0.07794695  0.53350267     0.37600
N1633       N  0.90825821  0.09354388  0.56713149    -0.89000
H1634       H  0.95446487  0.06781901  0.53857324     0.18700
H1635       H  0.87346463  0.05274818  0.47016752     0.18700
N1636       N  0.91900726  0.02831269  0.93566627    -0.88000
H1637       H  0.92397762  0.10996441  0.55673555     0.36100
H1638       H  0.91216365  0.08085137  0.59533627     0.41200
H1639       H  0.93575829  0.03822657  0.90963684     0.40800
H1640       H  0.90045907  0.02825090  0.92331366     0.35700
C1641       C  0.83168976  0.14327314  0.66583460    -0.26000
C1642       C  0.80573726  0.15611728  0.66521306    -0.14100
C1643       C  0.78899151  0.15045557  0.63612146     0.36500
C1644       C  0.79826436  0.13141860  0.60946379    -0.25500
C1645       C  0.82372931  0.11805545  0.61150354    -0.14700
C1646       C  0.84074873  0.12438903  0.63937351     0.37600
N1647       N  0.86709250  0.11121437  0.64148846    -0.89000
H1648       H  0.84484090  0.14752864  0.68762301     0.18700
H1649       H  0.78517156  0.12629485  0.58816848     0.18700
N1650       N  0.76210867  0.16304599  0.63506555    -0.88000
H1651       H  0.86545769  0.10075491  0.67387746     0.36100
H1652       H  0.88390238  0.12654773  0.63340893     0.41200
H1653       H  0.74802252  0.15568554  0.66562091     0.40800
H1654       H  0.75261025  0.15673702  0.61189230     0.35700
C1655       C  0.82521653  0.16117617  0.97394923    -0.26000
C1656       C  0.81009387  0.14934759  0.94843169    -0.14100
C1657       C  0.80876437  0.12041292  0.95283261     0.36500
C1658       C  0.82269325  0.10449934  0.48466730    -0.25500
C1659       C  0.83574370  0.11564081  0.01045784    -0.14700
C1660       C  0.83849354  0.14456126  0.00426052     0.37600
N1661       N  0.85515864  0.15708260  0.02809907    -0.89000
H1662       H  0.82721582  0.18340035  0.96971959     0.18700
H1663       H  0.82086172  0.08222384  0.48987943     0.18700
N1664       N  0.79403731  0.10779034  0.92638571    -0.88000
H1665       H  0.84195610  0.16984867  0.04515487     0.36100
H1666       H  0.87193880  0.16961876  0.00533543     0.41200
H1667       H  0.77214702  0.11150035  0.93513245     0.40800
H1668       H  0.79462226  0.08558584  0.43762264     0.35700
C1669       C  0.59704438  0.40180445  0.51351321    -0.26000
C1670       C  0.59975354  0.42222375  0.47543086    -0.14100
C1671       C  0.62151568  0.42688469  0.94943123     0.36500
C1672       C  0.64879421  0.40972210  0.44913543    -0.25500
C1673       C  0.64685085  0.39074522  0.48889903    -0.14700
C1674       C  0.62045426  0.38642605  0.52084620     0.37600
N1675       N  0.61817694  0.36831743  0.56255973    -0.89000
H1676       H  0.57742518  0.39940061  0.53928800     0.20700
H1677       H  0.66924752  0.41357442  0.42505075     0.18700
N1678       N  0.62344342  0.44835136  0.91108573    -0.88000
H1679       H  0.60082987  0.35388449  0.56777578     0.36100
H1680       H  0.61335912  0.37991844  0.58682909     0.41200
H1681       H  0.60755567  0.44348986  0.89547250     0.40800
H1682       H  0.64332798  0.44862273  0.88888665     0.35700
C1683       C  0.68459583  0.29776249  0.64983908    -0.26000
C1684       C  0.71149078  0.30083157  0.65961849    -0.14100
C1685       C  0.73250257  0.32112908  0.63205080     0.36500
C1686       C  0.72569629  0.33830138  0.59594801    -0.25500
C1687       C  0.69839999  0.33606944  0.58686976    -0.14700
C1688       C  0.67780518  0.31516943  0.61380756     0.37600
N1689       N  0.64947571  0.31183461  0.60678849    -0.89000
H1690       H  0.66870041  0.28187286  0.67055101     0.18700
H1691       H  0.74167314  0.35419246  0.57544727     0.18700
N1692       N  0.76075034  0.32521818  0.63972648    -0.88000
H1693       H  0.65134755  0.30760683  0.57570854     0.36100
H1694       H  0.63943771  0.33023004  0.60836678     0.41200
H1695       H  0.76376898  0.31153532  0.66743010     0.40800
H1696       H  0.76247107  0.34500062  0.64589052     0.35700
C1697       C  0.67495050  0.30188116  0.95322608    -0.26000
C1698       C  0.70361038  0.29413415  0.94678037    -0.14100
C1699       C  0.72279887  0.30615704  0.96646550     0.36500
C1700       C  0.71400571  0.32563122  0.48921888    -0.25500
C1701       C  0.68547850  0.33425818  0.49617162    -0.14700
C1702       C  0.66505273  0.32137406  0.97855171     0.37600
N1703       N  0.63516381  0.32680192  0.98499427    -0.89000
H1704       H  0.66003624  0.29270966  0.93819796     0.18700
H1705       H  0.72985782  0.33540813  0.50177686     0.18700
N1706       N  0.75224005  0.29851544  0.96068038    -0.88000
H1707       H  0.63329444  0.34671121  0.96813823     0.36100
H1708       H  0.62724063  0.32555278  0.51941945     0.41200
H1709       H  0.76237276  0.30503859  0.92742809     0.40800
H1710       H  0.76346331  0.30888886  0.97789647     0.35700
C1711       C  0.93080190  0.40691757  0.98246696    -0.26000
C1712       C  0.95045318  0.40686382  0.00920392    -0.14100
C1713       C  0.95333007  0.38138060  0.53914711     0.36500
C1714       C  0.93904357  0.35694831  0.53718650    -0.25500
C1715       C  0.92081822  0.35752307  0.00920440    -0.14700
C1716       C  0.91548709  0.38243850  0.98281577     0.37600
N1717       N  0.89642107  0.38221964  0.95382546    -0.89000
H1718       H  0.92867344  0.42571113  0.95958935     0.18700
H1719       H  0.94275042  0.33766766  0.55751886     0.18700
N1720       N  0.97034054  0.38035328  0.57104026    -0.88000
H1721       H  0.89518677  0.40215932  0.93607374     0.36100
H1722       H  0.87569872  0.37590795  0.97333548     0.41200
H1723       H  0.96307938  0.39481756  0.58998442     0.40800
H1724       H  0.99193207  0.38576016  0.55498614     0.35700
C1725       C  0.88241876  0.29906420  0.58131794    -0.26000
C1726       C  0.87076285  0.31013133  0.54543284    -0.14100
C1727       C  0.84048049  0.30996377  0.55157262     0.36500
C1728       C  0.82255658  0.29728346  0.59251686    -0.25500
C1729       C  0.83434320  0.28558039  0.62810771    -0.14700
C1730       C  0.86467409  0.28686575  0.62243964     0.37600
N1731       N  0.87745712  0.27451570  0.65780915    -0.89000
H1732       H  0.90563925  0.29854010  0.57647944     0.18700
H1733       H  0.79935449  0.29649254  0.59638314     0.18700
N1734       N  0.82785030  0.32271269  0.51651796    -0.88000
H1735       H  0.89998886  0.27742123  0.64835079     0.36100
H1736       H  0.87252376  0.25323940  0.66444992     0.41200
H1737       H  0.81485324  0.33825332  0.03047404     0.40800
H1738       H  0.81415254  0.30787408  0.51081689     0.35700
C1739       C  0.85898845  0.31091666  0.92396407    -0.26000
C1740       C  0.86731004  0.29309261  0.95835571    -0.14100
C1741       C  0.85381578  0.26637884  0.97459368     0.36500
C1742       C  0.83307951  0.25756791  0.95466359    -0.25500
C1743       C  0.82628544  0.27479585  0.91805254    -0.14700
C1744       C  0.83861823  0.30200315  0.90366943     0.37600
N1745       N  0.83075141  0.32051589  0.86815700    -0.89000
H1746       H  0.86911915  0.33162018  0.91185916     0.18700
H1747       H  0.82355956  0.23663218  0.96615566     0.18700
N1748       N  0.86168070  0.24750305  0.00968347    -0.88000
H1749       H  0.84946273  0.32700394  0.84339981     0.36100
H1750       H  0.82263655  0.33780608  0.87956429     0.41200
H1751       H  0.85766646  0.25610450  0.03746410     0.40800
H1752       H  0.88383502  0.24496617  0.00066455     0.35700
N1753       N  0.89112599  0.81567692  0.00483976    -0.03200
C1754       C  0.91790040  0.82806868  0.99724232    -0.00600
C1755       C  0.93587423  0.82565524  0.45808547    -0.23500
C1756       C  0.92058572  0.80811627  0.44223525    -0.23700
C1757       C  0.89343896  0.80344741  0.47007293    -0.00700
H1758       H  0.95698371  0.83571497  0.44182537     0.13100
H1759       H  0.92748153  0.80175308  0.41130279     0.13100
N1760       N  0.67652101  0.85739717  0.02149631    -0.03200
C1761       C  0.67119842  0.88384823  0.00411904    -0.00600
C1762       C  0.68262252  0.90229158  0.02397096    -0.23500
C1763       C  0.69374162  0.88723475  0.05621894    -0.23700
C1764       C  0.68928106  0.85998162  0.05475037    -0.00700
H1765       H  0.67940936  0.92415100  0.01973460     0.13100
H1766       H  0.70250000  0.89520064  0.08003328     0.13100
N1767       N  0.84578537  0.60080371  0.04820828    -0.03200
C1768       C  0.85721288  0.57602442  0.04625388    -0.00600
C1769       C  0.84765170  0.55761202  0.08606483    -0.23500
C1770       C  0.83080866  0.57161001  0.11395276    -0.23700
C1771       C  0.83017815  0.59793591  0.09007471    -0.00700
H1772       H  0.85565827  0.53754076  0.09569499     0.13100
H1773       H  0.82254979  0.56433903  0.14895024     0.13100
N1774       N  0.52242354  0.94533429  0.48864368    -0.36300
N1775       N  0.97544598  0.98059714  0.49438481    -0.56900
N1776       N  0.51689929  0.52361741  0.49392475    -0.36300
N1777       N  0.56239232  0.99068473  0.48878009    -0.56900
C1778       C  0.00109541  0.92856869  0.48724599     0.27300
C1779       C  0.54814279  0.93528796  0.47373627     0.27300
C1780       C  0.49510004  0.53856779  0.48279669     0.27300
C1781       C  0.53579246  0.54238670  0.99174559     0.27300
C1782       C  0.96021635  0.95606268  0.51062239     0.35900
C1783       C  0.95718090  0.50043138  0.50189377     0.35900
C1784       C  0.57876855  0.96883579  0.49443321     0.35900
C1785       C  0.57450127  0.01168876  0.00078708     0.35900
C1786       C  0.01287630  0.90774099  0.46715449    -0.21600
C1787       C  0.54371274  0.91225950  0.45712447    -0.21600
C1788       C  0.50456856  0.56626895  0.46997940    -0.21600
C1789       C  0.52892218  0.56883274  0.97536484    -0.21600
C1790       C  0.93189446  0.95988941  0.52998822    -0.22700
C1791       C  0.92995091  0.48812783  0.52344220    -0.22700
C1792       C  0.60149691  0.97592253  0.00985728    -0.22700
C1793       C  0.59716205  0.00169076  0.01887425    -0.22700
C1794       C  0.97134669  0.93065066  0.50458191    -0.18000
C1795       C  0.57473297  0.94397088  0.48084100    -0.18000
C1796       C  0.56079892  0.53556652  0.00757720    -0.18000
C1797       C  0.96475743  0.52921127  0.49008411    -0.18000
H1798       H  0.00135448  0.89096533  0.45983502     0.14900
H1799       H  0.55990880  0.89914014  0.44416663     0.14900
H1800       H  0.49219105  0.58350592  0.45997291     0.14900
H1801       H  0.54221004  0.58772741  0.96960825     0.14900
H1802       H  0.91454136  0.94421198  0.54547838     0.13200
H1803       H  0.91069919  0.49821202  0.53540565     0.13200
H1804       H  0.61731498  0.96216841  0.01989660     0.13200
H1805       H  0.60914346  0.01155787  0.03719288     0.13200
H1806       H  0.51882323  0.95988711  0.50816131     0.26400
H1807       H  0.51510773  0.50306085  0.51026633     0.26400
N1808       N  0.63018719  0.61280691  0.11143928    -0.03200
C1809       C  0.60821568  0.59336173  0.11791330    -0.00600
C1810       C  0.59826524  0.58242628  0.16238591    -0.23500
C1811       C  0.61390436  0.59592324  0.18387719    -0.23700
C1812       C  0.63313617  0.61467241  0.15211139    -0.00700
H1813       H  0.58157221  0.56609356  0.17771493     0.13100
H1814       H  0.61152864  0.59243850  0.21903458     0.13100
O1815       O  0.81580394  0.77333671  0.34832297    -0.75000
O1816       O  0.78773035  0.74822796  0.41236332    -0.53900
C1817       C  0.80864175  0.76573837  0.39049479     0.78700
O1818       O  0.70776259  0.78742309  0.23649199    -0.59600
O1819       O  0.72921178  0.76189040  0.18753271    -0.52600
C1820       C  0.71479674  0.78207012  0.19783929     0.70700
O1821       O  0.70395690  0.78244233  0.38000286    -0.74200
O1822       O  0.72719312  0.75642275  0.42774455    -0.54700
C1823       C  0.71116772  0.77622631  0.41705121     0.76700
O1824       O  0.81924227  0.77641607  0.20558281    -0.59300
O1825       O  0.79089008  0.75683754  0.16961733    -0.52400
C1826       C  0.81279729  0.77218949  0.17041043     0.73300
Zr1827     Zr  0.80071933  0.76335000  0.28468499     2.54700
O1828       O  0.80312407  0.81355603  0.26868830    -0.79900
O1829       O  0.85294281  0.76190290  0.27356787    -0.93300
Zr1830     Zr  0.71564550  0.76840004  0.30972210     2.64700
O1831       O  0.72163490  0.81841808  0.29882660    -0.98200
O1832       O  0.66313911  0.76756166  0.32422657    -0.80300
O1833       O  0.75780706  0.76484682  0.33822627    -0.83700
O1834       O  0.75893977  0.76783405  0.25618746    -2.18400
O1835       O  0.80074756  0.66905782  0.23483241    -0.67100
O1836       O  0.77866694  0.69614419  0.18677989    -0.51600
C1837       C  0.79409130  0.67607896  0.19732763     0.71700
O1838       O  0.68887927  0.67135612  0.41228480    -0.60000
O1839       O  0.71745538  0.69144884  0.44746617    -0.51900
C1840       C  0.69630403  0.67511384  0.44700502     0.73500
O1841       O  0.69260896  0.67310660  0.27066909    -0.71400
O1842       O  0.71844340  0.70025184  0.20655616    -0.50000
C1843       C  0.69955489  0.68061623  0.22853509     0.74900
O1844       O  0.80400419  0.66585218  0.37596909    -0.66700
O1845       O  0.78269108  0.69002637  0.42689981    -0.53900
C1846       C  0.79928009  0.67135277  0.41449297     0.73300
Zr1847     Zr  0.79007264  0.68175119  0.30665422     2.77500
O1848       O  0.77878067  0.63208275  0.32485213    -0.97400
O1849       O  0.84204180  0.67734666  0.28813969    -0.78300
Zr1850     Zr  0.70503936  0.68725444  0.33321458     2.70100
O1851       O  0.69695543  0.63724606  0.35070315    -0.79500
O1852       O  0.65347682  0.69382284  0.34485688    -0.98600
Zr1853     Zr  0.75255806  0.72225378  0.39037755     2.21500
Zr1854     Zr  0.75381194  0.72784076  0.22742402     2.11100
O1855       O  0.74781757  0.68531153  0.27960882    -2.47300
O1856       O  0.74722771  0.68242865  0.36138077    -0.79300
O1857       O  0.79685034  0.72399238  0.25405747    -0.71500
O1858       O  0.70954440  0.72654101  0.36338758    -2.32400
O1859       O  0.79575312  0.72104718  0.33610867    -2.28700
O1860       O  0.70982554  0.72916311  0.28006010    -0.73200
H1861       H  0.76178508  0.78443472  0.23352286     0.78700
H1862       H  0.69285872  0.72704606  0.38685285     0.79800
H1863       H  0.74585111  0.66982109  0.26628332     0.82100
H1864       H  0.81244447  0.71957001  0.34869707     0.79700
H1865       H  0.65793664  0.78302924  0.33913836     0.42700
H1866       H  0.64948757  0.70518432  0.36736724     0.41700
H1867       H  0.71211305  0.63085501  0.32885239     0.41400
H1868       H  0.76254548  0.62898831  0.35117575     0.39300
H1869       H  0.84994020  0.68957840  0.30419021     0.42400
H1870       H  0.86078163  0.78000339  0.25457719     0.37200
H1871       H  0.82107235  0.81895791  0.27649290     0.43300
H1872       H  0.73806155  0.82159650  0.31188037     0.39700
H1873       H  0.76998325  0.62827219  0.30124425     0.44700
H1874       H  0.85822566  0.74843924  0.25459747     0.43400
H1875       H  0.72940117  0.82519006  0.26690197     0.43500
H1876       H  0.65138797  0.70634311  0.31753440     0.43900
C1877       C  0.67140960  0.62031261  0.19077613    -0.26000
C1878       C  0.65390383  0.63300389  0.16356314    -0.14100
C1879       C  0.65281593  0.66209650  0.15573834     0.36500
C1880       C  0.66895932  0.67756263  0.17545452    -0.25500
C1881       C  0.68534985  0.66453419  0.20412555    -0.14700
C1882       C  0.68679245  0.63569773  0.21137869     0.37600
N1883       N  0.70369360  0.62191606  0.24009368    -0.89000
H1884       H  0.67216110  0.59805446  0.19760863     0.18700
H1885       H  0.66752367  0.69972520  0.17013331     0.18700
N1886       N  0.63419742  0.67636049  0.13051557    -0.88000
H1887       H  0.71890057  0.61102139  0.22226686     0.36100
H1888       H  0.68996708  0.60761049  0.26521462     0.41200
H1889       H  0.61318563  0.66734752  0.14300880     0.40800
H1890       H  0.64130508  0.67443437  0.09807380     0.35700
C1891       C  0.63286586  0.64335066  0.03974213    -0.26000
C1892       C  0.64697059  0.62814622  0.06993266    -0.14100
C1893       C  0.67732045  0.62801020  0.05906556     0.36500
C1894       C  0.69421439  0.64629862  0.52072936    -0.25500
C1895       C  0.67951483  0.65900205  0.48941985    -0.14700
C1896       C  0.64917167  0.65511378  0.49836247     0.37600
N1897       N  0.63366707  0.66727365  0.46648947    -0.89000
H1898       H  0.60951556  0.64337904  0.04832094     0.18700
H1899       H  0.71761401  0.64848302  0.51358931     0.18700
N1900       N  0.69200832  0.61107247  0.08804506    -0.88000
H1901       H  0.61883264  0.68006695  0.48061007     0.36100
H1902       H  0.62205531  0.65142195  0.45932744     0.41200
H1903       H  0.70690817  0.62376929  0.09588630     0.40800
H1904       H  0.70355309  0.59727590  0.07111252     0.35700
C1905       C  0.55515486  0.56346358  0.06451045    -0.26000
C1906       C  0.57345667  0.55552698  0.02879653    -0.14100
C1907       C  0.60323395  0.56433842  0.01790453     0.36500
C1908       C  0.61431133  0.57763619  0.04624605    -0.25500
C1909       C  0.59610440  0.58378791  0.08382632    -0.14700
C1910       C  0.56598026  0.57801612  0.09135429     0.37600
N1911       N  0.54646079  0.58646821  0.12697943    -0.89000
H1912       H  0.53227530  0.55737605  0.07250108     0.18700
H1913       H  0.63739905  0.58227380  0.03950452     0.18700
N1914       N  0.62652378  0.56028951  0.47582292    -0.88000
H1915       H  0.52506432  0.58049140  0.12826308     0.36100
H1916       H  0.54800605  0.60802553  0.12046726     0.41200
H1917       H  0.61589186  0.55169716  0.45597955     0.40800
H1918       H  0.64225344  0.54698226  0.48367749     0.35700
C1919       C  0.93613453  0.56637790  0.02417408    -0.26000
C1920       C  0.94099903  0.54869472  0.49201635    -0.14100
C1921       C  0.91832383  0.54658334  0.47060716     0.36500
C1922       C  0.88949444  0.55707718  0.98800832    -0.25500
C1923       C  0.88629192  0.57307150  0.01991052    -0.14700
C1924       C  0.91041158  0.57918123  0.03580461     0.37600
N1925       N  0.90794498  0.59646116  0.06703636    -0.89000
H1926       H  0.95332767  0.56902232  0.04043074     0.18700
H1927       H  0.87091488  0.55228786  0.97589861     0.18700
N1928       N  0.92064152  0.52939352  0.43904065    -0.88000
H1929       H  0.92363793  0.61282972  0.05423224     0.36100
H1930       H  0.91248439  0.58500052  0.09571905     0.41200
H1931       H  0.93778068  0.53789730  0.41257332     0.40800
H1932       H  0.90206139  0.52987358  0.42668774     0.35700
C1933       C  0.83150409  0.64853196  0.16252985    -0.26000
C1934       C  0.80427939  0.65913200  0.16474109    -0.14100
C1935       C  0.78642208  0.65153070  0.13848435     0.36500
C1936       C  0.79586521  0.63249628  0.11204573    -0.25500
C1937       C  0.82250377  0.62103067  0.11182345    -0.14700
C1938       C  0.84071170  0.62959917  0.13635192     0.37600
N1939       N  0.86835602  0.61851469  0.13558343    -0.89000
H1940       H  0.84545475  0.65444639  0.18209839     0.18700
H1941       H  0.78198547  0.62569712  0.09309987     0.18700
N1942       N  0.75828402  0.66198523  0.14045373    -0.88000
H1943       H  0.86883524  0.60892832  0.16766712     0.36100
H1944       H  0.88409163  0.63493347  0.12498740     0.41200
H1945       H  0.74595321  0.65448290  0.17226059     0.40800
H1946       H  0.74791890  0.65415228  0.11949439     0.35700
C1947       C  0.82731483  0.66672083  0.47344245    -0.26000
C1948       C  0.81388562  0.65438870  0.44645157    -0.14100
C1949       C  0.81541924  0.62568657  0.44899953     0.36500
C1950       C  0.82222457  0.60619749  0.98643122    -0.25500
C1951       C  0.84127044  0.62194134  0.50797943    -0.14700
C1952       C  0.84145387  0.65083744  0.50345307     0.37600
N1953       N  0.85640812  0.66415665  0.52856809    -0.89000
H1954       H  0.82722908  0.68879148  0.47077351     0.18700
H1955       H  0.82004554  0.58392486  0.99180091     0.18700
N1956       N  0.80260685  0.61244049  0.42116071    -0.88000
H1957       H  0.84175158  0.67558019  0.54624485     0.36100
H1958       H  0.87239174  0.67806308  0.50663091     0.41200
H1959       H  0.78027230  0.61409553  0.42995077     0.40800
H1960       H  0.79487731  0.58777168  0.93807008     0.35700
C1961       C  0.59475694  0.90336450  0.01213145    -0.26000
C1962       C  0.59861196  0.92535666  0.97582698    -0.14100
C1963       C  0.62268069  0.92736533  0.44655572     0.36500
C1964       C  0.64785652  0.91289915  0.95087815    -0.25500
C1965       C  0.64481719  0.89230917  0.98917638    -0.14700
C1966       C  0.61771944  0.88724342  0.01956540     0.37600
N1967       N  0.61422419  0.86761902  0.06016760    -0.89000
H1968       H  0.57452362  0.90018243  0.03675933     0.20700
H1969       H  0.66884586  0.91744583  0.92822478     0.18700
N1970       N  0.62439746  0.94786094  0.40710636    -0.88000
H1971       H  0.59683007  0.85371250  0.06295145     0.36100
H1972       H  0.60879558  0.87811403  0.08579349     0.41200
H1973       H  0.60848654  0.94221833  0.39212737     0.40800
H1974       H  0.64425551  0.94777207  0.38501406     0.35700
C1975       C  0.68265105  0.79731000  0.14807054    -0.26000
C1976       C  0.70803583  0.80160319  0.16139335    -0.14100
C1977       C  0.72831768  0.82330529  0.13721740     0.36500
C1978       C  0.72264309  0.84065837  0.10041001    -0.25500
C1979       C  0.69665944  0.83726304  0.08762665    -0.14700
C1980       C  0.67656665  0.81507887  0.11177225     0.37600
N1981       N  0.64926398  0.81076196  0.10185987    -0.89000
H1982       H  0.66729867  0.78030316  0.16635622     0.18700
H1983       H  0.73821038  0.85759133  0.08256797     0.18700
N1984       N  0.75453684  0.82846702  0.15002542    -0.88000
H1985       H  0.65288382  0.80635096  0.07070481     0.36100
H1986       H  0.63827669  0.82874693  0.10238551     0.41200
H1987       H  0.76605922  0.81071741  0.15102246     0.40800
H1988       H  0.74911543  0.83225737  0.18172685     0.35700
C1989       C  0.67279815  0.80228694  0.45596490    -0.26000
C1990       C  0.70145024  0.79447428  0.44825821    -0.14100
C1991       C  0.72137567  0.80657684  0.46663942     0.36500
C1992       C  0.71381838  0.82922297  0.98732015    -0.25500
C1993       C  0.68481967  0.83660348  0.99538734    -0.14700
C1994       C  0.66373812  0.82210833  0.48104856     0.37600
N1995       N  0.63378679  0.82747963  0.48953211    -0.89000
H1996       H  0.65728168  0.79292720  0.44218475     0.18700
H1997       H  0.72942029  0.83973077  0.99939780     0.18700
N1998       N  0.75072608  0.79862681  0.46000361    -0.88000
H1999       H  0.63150262  0.84731225  0.47279800     0.36100
H2000       H  0.62659480  0.82586620  0.01931295     0.41200
H2001       H  0.76039276  0.80484793  0.42653989     0.40800
H2002       H  0.76252035  0.80905389  0.47641991     0.35700
C2003       C  0.93066075  0.90626990  0.48763132    -0.26000
C2004       C  0.95130806  0.90579672  0.51285361    -0.14100
C2005       C  0.95659001  0.88102714  0.03510326     0.36500
C2006       C  0.94231722  0.85603477  0.03587243    -0.25500
C2007       C  0.92266346  0.85648814  0.50994535    -0.14700
C2008       C  0.91601373  0.88182139  0.48632105     0.37600
N2009       N  0.89652010  0.88220617  0.45782026    -0.89000
H2010       H  0.92747461  0.92546657  0.46655443     0.18700
H2011       H  0.94682923  0.83730013  0.05673337     0.18700
N2012       N  0.97446464  0.88146936  0.06552857    -0.88000
H2013       H  0.89451539  0.90241358  0.44179929     0.36100
H2014       H  0.87609079  0.87494351  0.47754038     0.41200
H2015       H  0.96754083  0.89657872  0.08334166     0.40800
H2016       H  0.99586728  0.88668872  0.04834300     0.35700
C2017       C  0.88154349  0.79915496  0.08421148    -0.26000
C2018       C  0.87095638  0.80980410  0.04712828    -0.14100
C2019       C  0.84082044  0.80985760  0.05139330     0.36500
C2020       C  0.82197193  0.79731714  0.09160245    -0.25500
C2021       C  0.83275028  0.78561557  0.12823726    -0.14700
C2022       C  0.86293245  0.78704286  0.12451613     0.37600
N2023       N  0.87474202  0.77493038  0.16109170    -0.89000
H2024       H  0.90466701  0.79868908  0.08090834     0.18700
H2025       H  0.79890474  0.79671155  0.09404161     0.18700
N2026       N  0.82930299  0.82266191  0.01514348    -0.88000
H2027       H  0.89726774  0.77800947  0.15305384     0.36100
H2028       H  0.87002388  0.75362247  0.16768521     0.41200
H2029       H  0.81613504  0.83751045  0.52697356     0.40800
H2030       H  0.81582204  0.80794419  0.00870896     0.35700
C2031       C  0.85867818  0.81300431  0.42372084    -0.26000
C2032       C  0.86875799  0.79418138  0.45514156    -0.14100
C2033       C  0.85675283  0.76689582  0.46860345     0.36500
C2034       C  0.83585181  0.75852488  0.44863445    -0.25500
C2035       C  0.82670515  0.77698026  0.41547549    -0.14700
C2036       C  0.83714709  0.80500975  0.40459568     0.37600
N2037       N  0.82636129  0.82587396  0.37493862    -0.89000
H2038       H  0.86761461  0.83419381  0.41409911     0.18700
H2039       H  0.82759697  0.73718591  0.45774526     0.18700
N2040       N  0.86599871  0.74722247  0.50137044    -0.88000
H2041       H  0.81854315  0.84106926  0.39209379     0.36100
H2042       H  0.80845088  0.81828837  0.36620277     0.41200
H2043       H  0.86206357  0.75458018  0.53037586     0.40800
H2044       H  0.88827024  0.74574944  0.49099062     0.35700
N2045       N  0.89126909  0.81755378  0.50266669    -0.03200
C2046       C  0.91747390  0.83118557  0.49492103    -0.00600
C2047       C  0.93697563  0.81858454  0.96493066    -0.23500
C2048       C  0.92147089  0.79970886  0.95185506    -0.23700
C2049       C  0.89352297  0.79833807  0.97673626    -0.00700
H2050       H  0.95892499  0.82668832  0.94937357     0.13100
H2051       H  0.92893280  0.79037446  0.92390978     0.13100
N2052       N  0.67664387  0.85708660  0.52245554    -0.03200
C2053       C  0.67229224  0.88344666  0.50322670    -0.00600
C2054       C  0.68515956  0.90220734  0.52092068    -0.23500
C2055       C  0.69570568  0.88749098  0.55415130    -0.23700
C2056       C  0.68979624  0.86008564  0.55507179    -0.00700
H2057       H  0.68299318  0.92427048  0.51503372     0.13100
H2058       H  0.70539052  0.89588182  0.57667573     0.13100
N2059       N  0.85002195  0.60404837  0.54402726    -0.03200
C2060       C  0.86172006  0.57948530  0.54092913    -0.00600
C2061       C  0.85241171  0.56033308  0.57993398    -0.23500
C2062       C  0.83528366  0.57350312  0.60866822    -0.23700
C2063       C  0.83431345  0.60013086  0.58609888    -0.00700
H2064       H  0.86063097  0.54022782  0.58844480     0.13100
H2065       H  0.82702925  0.56547838  0.64348938     0.13100
N2066       N  0.52367862  0.94683615  0.98721901    -0.36300
N2067       N  0.97491824  0.98040343  0.98779783    -0.56900
N2068       N  0.51321897  0.52435378  0.99591786    -0.36300
N2069       N  0.56453122  0.99265492  0.98190192    -0.56900
C2070       C  0.00241324  0.92903417  0.97947181     0.27300
C2071       C  0.54906555  0.93749130  0.96903274     0.27300
C2072       C  0.49178606  0.53896489  0.98279530     0.27300
C2073       C  0.53969247  0.54144571  0.48941457     0.27300
C2074       C  0.96028287  0.95544282  0.00191659     0.35900
C2075       C  0.95589381  0.50068302  0.00358224     0.35900
C2076       C  0.58063266  0.97065695  0.98808759     0.35900
C2077       C  0.57207165  0.00956502  0.50824732     0.35900
C2078       C  0.01520242  0.90854626  0.95943339    -0.21600
C2079       C  0.54389479  0.91535498  0.95086215    -0.21600
C2080       C  0.50132143  0.56663818  0.96889618    -0.21600
C2081       C  0.53256245  0.56810230  0.47498747    -0.21600
C2082       C  0.93152656  0.95830877  0.02026226    -0.22700
C2083       C  0.92884321  0.48805681  0.02534878    -0.22700
C2084       C  0.59956066  0.97411718  0.51633676    -0.22700
C2085       C  0.59482814  0.99961925  0.52613280    -0.22700
C2086       C  0.97246060  0.93041304  0.99580219    -0.18000
C2087       C  0.57607755  0.94569417  0.97514179    -0.18000
C2088       C  0.56511522  0.53419911  0.50373757    -0.18000
C2089       C  0.96305374  0.52946855  0.99277130    -0.18000
H2090       H  0.00439400  0.89184573  0.95080158     0.14900
H2091       H  0.55978915  0.90291034  0.93531070     0.14900
H2092       H  0.48914856  0.58366795  0.95735888     0.14900
H2093       H  0.54597033  0.58688364  0.46956394     0.14900
H2094       H  0.91449967  0.94213613  0.03430344     0.13200
H2095       H  0.90960301  0.49779605  0.03842283     0.13200
H2096       H  0.61564632  0.96054316  0.52591404     0.13200
H2097       H  0.60672042  0.00941909  0.54464589     0.13200
H2098       H  0.52095191  0.96053556  0.00829675     0.26400
H2099       H  0.51113194  0.50402338  0.01332156     0.26400
N2100       N  0.63245226  0.61072679  0.61183219    -0.03200
C2101       C  0.61151530  0.59020785  0.61818037    -0.00600
C2102       C  0.60207177  0.57890168  0.66261960    -0.23500
C2103       C  0.61680518  0.59325168  0.68420744    -0.23700
C2104       C  0.63505099  0.61292192  0.65260065    -0.00700
H2105       H  0.58625353  0.56180526  0.67790924     0.13100
H2106       H  0.61448210  0.58970775  0.71935724     0.13100
O2107       O  0.81668913  0.77149397  0.85092692    -0.75000
O2108       O  0.78841577  0.74598879  0.91441837    -0.53900
C2109       C  0.80948851  0.76341058  0.89308989     0.78700
O2110       O  0.71277242  0.78855725  0.73378881    -0.59600
O2111       O  0.73242157  0.76158565  0.68608710    -0.52600
C2112       C  0.71916472  0.78256321  0.69553531     0.70700
O2113       O  0.70646998  0.78311952  0.87808167    -0.74200
O2114       O  0.72894089  0.75702340  0.92681603    -0.54700
C2115       C  0.71338581  0.77707890  0.91536298     0.76700
O2116       O  0.82217984  0.77497185  0.70580033    -0.59300
O2117       O  0.79335359  0.75582479  0.66996671    -0.52400
C2118       C  0.81545205  0.77093913  0.67059876     0.73300
Zr2119     Zr  0.80339642  0.76180626  0.78545622     2.54700
O2120       O  0.80883898  0.81198599  0.76957151    -0.79900
O2121       O  0.85548261  0.75810370  0.77297571    -0.93300
Zr2122     Zr  0.71848755  0.76881799  0.80805621     2.64700
O2123       O  0.72574453  0.81859206  0.79847530    -0.98200
O2124       O  0.66639896  0.77080924  0.81749361    -0.80300
O2125       O  0.76006516  0.76420709  0.83782941    -0.83700
O2126       O  0.76207189  0.76713015  0.75588100    -2.18400
O2127       O  0.80234687  0.66774251  0.73653779    -0.67100
O2128       O  0.78108465  0.69520428  0.68783051    -0.51600
C2129       C  0.79622497  0.67498908  0.69871699     0.71700
O2130       O  0.68970938  0.67089668  0.91139118    -0.60000
O2131       O  0.71723276  0.69147918  0.94747545    -0.51900
C2132       C  0.69644860  0.67490360  0.94648398     0.73500
O2133       O  0.69281723  0.67500358  0.76891886    -0.71400
O2134       O  0.72059341  0.70047361  0.70486584    -0.50000
C2135       C  0.70058301  0.68182190  0.72673506     0.74900
O2136       O  0.80183929  0.66298442  0.87920706    -0.66700
O2137       O  0.78111228  0.68822567  0.92891503    -0.53900
C2138       C  0.79676776  0.66871196  0.91758015     0.73300
Zr2139     Zr  0.79076374  0.68048105  0.80819433     2.77500
O2140       O  0.78136513  0.63061204  0.82456692    -0.97400
O2141       O  0.84291837  0.67700909  0.79179476    -0.78300
Zr2142     Zr  0.70581222  0.68763136  0.83229131     2.70100
O2143       O  0.69723858  0.63779300  0.84531067    -0.79500
O2144       O  0.65445919  0.69526181  0.84663574    -0.98600
Zr2145     Zr  0.75306486  0.72170900  0.89061157     2.21500
Zr2146     Zr  0.75598450  0.72721888  0.72735197     2.11100
O2147       O  0.74890495  0.68476398  0.77986670    -2.47300
O2148       O  0.74744700  0.68193887  0.86164109    -0.79300
O2149       O  0.79859654  0.72252107  0.75510817    -0.71500
O2150       O  0.71063243  0.72699208  0.86221749    -2.32400
O2151       O  0.79688852  0.71963006  0.83778540    -2.28700
O2152       O  0.71181874  0.72953432  0.77888764    -0.73200
H2153       H  0.76554466  0.78366459  0.73318806     0.78700
H2154       H  0.69377593  0.72781832  0.88521919     0.79800
H2155       H  0.74670221  0.66931852  0.76651580     0.82100
H2156       H  0.81319049  0.71764496  0.85124686     0.79700
H2157       H  0.65858301  0.76707881  0.84965985     0.42700
H2158       H  0.65239164  0.70963090  0.82125710     0.41700
H2159       H  0.70977784  0.63026125  0.86515485     0.41400
H2160       H  0.76359753  0.62767924  0.81444325     0.39300
H2161       H  0.85045892  0.69196222  0.80336501     0.42400
H2162       H  0.85935349  0.74314758  0.75656553     0.37200
H2163       H  0.79808074  0.81719196  0.79675101     0.43300
H2164       H  0.74365636  0.82374724  0.77507159     0.39700
H2165       H  0.79690103  0.62391496  0.80365788     0.44700
H2166       H  0.85899908  0.75012884  0.80217815     0.43400
H2167       H  0.71012653  0.82633067  0.78476080     0.43500
H2168       H  0.64519844  0.67825333  0.84265500     0.43900
C2169       C  0.67293605  0.62039938  0.69125675    -0.26000
C2170       C  0.65489693  0.63219976  0.66427916    -0.14100
C2171       C  0.65306644  0.66124259  0.65586748     0.36500
C2172       C  0.66935891  0.67755943  0.67431033    -0.25500
C2173       C  0.68647993  0.66536030  0.70254462    -0.14700
C2174       C  0.68835164  0.63657237  0.71067798     0.37600
N2175       N  0.70564550  0.62360515  0.73940695    -0.89000
H2176       H  0.67425764  0.59820879  0.69863669     0.18700
H2177       H  0.66737983  0.69965804  0.66854582     0.18700
N2178       N  0.63339124  0.67453448  0.63169050    -0.88000
H2179       H  0.72091837  0.61260191  0.72192541     0.36100
H2180       H  0.69219946  0.60948828  0.76518165     0.41200
H2181       H  0.61267729  0.66510219  0.64573818     0.40800
H2182       H  0.63965944  0.67211343  0.59938756     0.35700
C2183       C  0.63400113  0.63951308  0.53903646    -0.26000
C2184       C  0.64868285  0.62670572  0.57037195    -0.14100
C2185       C  0.67913360  0.62960609  0.56052679     0.36500
C2186       C  0.69315745  0.64383201  0.01895296    -0.25500
C2187       C  0.67905830  0.65904772  0.98872433    -0.14700
C2188       C  0.64856806  0.65863040  0.99899429     0.37600
N2189       N  0.63372703  0.67447141  0.96878252    -0.89000
H2190       H  0.61062390  0.63734687  0.54626215     0.18700
H2191       H  0.71652926  0.64366753  0.01089730     0.18700
N2192       N  0.69488803  0.61475936  0.58999976    -0.88000
H2193       H  0.61156145  0.67353424  0.98283017     0.36100
H2194       H  0.63587652  0.66507754  0.94192483     0.41200
H2195       H  0.70804200  0.62903398  0.59806545     0.40800
H2196       H  0.70837750  0.60200057  0.57334866     0.35700
C2197       C  0.55920205  0.55915265  0.56432617    -0.26000
C2198       C  0.57755457  0.55304555  0.52704086    -0.14100
C2199       C  0.60705638  0.56280309  0.51610595     0.36500
C2200       C  0.61785038  0.57552229  0.54538902    -0.25500
C2201       C  0.59958977  0.58024671  0.58407542    -0.14700
C2202       C  0.56964579  0.57313813  0.59219450     0.37600
N2203       N  0.54987137  0.57979420  0.62926613    -0.89000
H2204       H  0.53652889  0.55223541  0.57249404     0.18700
H2205       H  0.64078768  0.58104602  0.53825973     0.18700
N2206       N  0.62272944  0.56011241  0.97871467    -0.88000
H2207       H  0.52869951  0.57290966  0.63086957     0.36100
H2208       H  0.55020073  0.60129027  0.62435304     0.41200
H2209       H  0.61190087  0.55128972  0.95933381     0.40800
H2210       H  0.63774767  0.54638444  0.98802919     0.35700
C2211       C  0.93944164  0.56756120  0.51958710    -0.26000
C2212       C  0.93873213  0.54833672  0.99521725    -0.14100
C2213       C  0.91591630  0.54536968  0.97435163     0.36500
C2214       C  0.89279821  0.56002090  0.48259923    -0.25500
C2215       C  0.89041987  0.57671387  0.51348436    -0.14700
C2216       C  0.91473489  0.58212346  0.52935239     0.37600
N2217       N  0.91322519  0.60031810  0.55913797    -0.89000
H2218       H  0.95667530  0.56971908  0.53598741     0.18700
H2219       H  0.87405724  0.55581164  0.47045028     0.18700
N2220       N  0.91904907  0.52880925  0.94181023    -0.88000
H2221       H  0.92991299  0.61572785  0.54578333     0.36100
H2222       H  0.91688158  0.58911103  0.58862197     0.41200
H2223       H  0.93545550  0.53851736  0.91507702     0.40800
H2224       H  0.90020530  0.52826912  0.93029458     0.35700
C2225       C  0.83363651  0.64699947  0.66479682    -0.26000
C2226       C  0.80679136  0.65830494  0.66589870    -0.14100
C2227       C  0.78986675  0.65228395  0.63729824     0.36500
C2228       C  0.79980323  0.63413248  0.60952739    -0.25500
C2229       C  0.82620627  0.62228881  0.60975756    -0.14700
C2230       C  0.84352239  0.62924049  0.63678569     0.37600
N2231       N  0.87101156  0.61782862  0.63635874    -0.89000
H2232       H  0.84690591  0.65172434  0.68613941     0.18700
H2233       H  0.78657190  0.62848433  0.58878333     0.18700
N2234       N  0.76223593  0.66365378  0.63778874    -0.88000
H2235       H  0.87075346  0.60702316  0.66812031     0.36100
H2236       H  0.88678904  0.63414761  0.62802324     0.41200
H2237       H  0.74872689  0.65547187  0.66852733     0.40800
H2238       H  0.75274714  0.65726481  0.61467203     0.35700
C2239       C  0.82557413  0.66351545  0.97521567    -0.26000
C2240       C  0.81010395  0.65126413  0.95056384    -0.14100
C2241       C  0.80889084  0.62226323  0.95578655     0.36500
C2242       C  0.82880784  0.60990124  0.47977516    -0.25500
C2243       C  0.83711751  0.61833005  0.01186821    -0.14700
C2244       C  0.83945395  0.64731787  0.00517814     0.37600
N2245       N  0.85626981  0.66034899  0.02824121    -0.89000
H2246       H  0.82742212  0.68575554  0.97052071     0.18700
H2247       H  0.82843932  0.58774157  0.48306877     0.18700
N2248       N  0.79351946  0.60915746  0.93065395    -0.88000
H2249       H  0.84294452  0.67287689  0.04564713     0.36100
H2250       H  0.87262404  0.67314400  0.00500546     0.41200
H2251       H  0.77166786  0.61282333  0.94020095     0.40800
H2252       H  0.80597738  0.59136934  0.42664064     0.35700
C2253       C  0.59578794  0.90371092  0.51896059    -0.26000
C2254       C  0.59777861  0.92418695  0.48112642    -0.14100
C2255       C  0.62498275  0.92963837  0.94403493     0.36500
C2256       C  0.64622769  0.91123054  0.45205910    -0.25500
C2257       C  0.64501971  0.89206154  0.49142597    -0.14700
C2258       C  0.61925193  0.88796136  0.52465941     0.37600
N2259       N  0.61777014  0.86963778  0.56596356    -0.89000
H2260       H  0.57664910  0.90133931  0.54558563     0.20700
H2261       H  0.66624038  0.91496203  0.42700227     0.18700
N2262       N  0.62885739  0.95193232  0.90634392    -0.88000
H2263       H  0.60013181  0.85541307  0.57200440     0.36100
H2264       H  0.61388293  0.88113087  0.59044234     0.41200
H2265       H  0.61443777  0.94775756  0.88784449     0.40800
H2266       H  0.64963519  0.95257509  0.88637072     0.35700
C2267       C  0.68578244  0.79777191  0.64830776    -0.26000
C2268       C  0.71224592  0.80183116  0.65886782    -0.14100
C2269       C  0.73235284  0.82332555  0.63267576     0.36500
C2270       C  0.72492177  0.84082296  0.59738893    -0.25500
C2271       C  0.69792116  0.83763132  0.58760883    -0.14700
C2272       C  0.67835265  0.81542005  0.61307967     0.37600
N2273       N  0.65038030  0.81084326  0.60550796    -0.89000
H2274       H  0.67062508  0.78094209  0.66795369     0.18700
H2275       H  0.74026270  0.85754352  0.57789406     0.18700
N2276       N  0.76035814  0.82815093  0.64072670    -0.88000
H2277       H  0.65288284  0.80649775  0.57442989     0.36100
H2278       H  0.63929388  0.82869095  0.60707426     0.41200
H2279       H  0.76407772  0.81375485  0.66719376     0.40800
H2280       H  0.76089486  0.84741691  0.64909520     0.35700
C2281       C  0.67465226  0.80280322  0.95381470    -0.26000
C2282       C  0.70350468  0.79567404  0.94599855    -0.14100
C2283       C  0.72326381  0.80890104  0.96329151     0.36500
C2284       C  0.71262348  0.82714494  0.49030984    -0.25500
C2285       C  0.68400473  0.83548624  0.49778477    -0.14700
C2286       C  0.66505961  0.82274757  0.97835647     0.37600
N2287       N  0.63507080  0.82781985  0.98574717    -0.89000
H2288       H  0.65936524  0.79285713  0.94035312     0.18700
H2289       H  0.72857293  0.83718334  0.50234829     0.18700
N2290       N  0.75305197  0.80226739  0.95528913    -0.88000
H2291       H  0.63280666  0.84760466  0.96880123     0.36100
H2292       H  0.62586910  0.82570435  0.52322113     0.41200
H2293       H  0.76185776  0.80824227  0.92152502     0.40800
H2294       H  0.76480870  0.81372102  0.97038914     0.35700
C2295       C  0.93301763  0.90402327  0.97886772    -0.26000
C2296       C  0.95333753  0.90495486  0.00426703    -0.14100
C2297       C  0.95519023  0.88068454  0.54073707     0.36500
C2298       C  0.94124889  0.85620634  0.53818983    -0.25500
C2299       C  0.92398892  0.85472438  0.00768780    -0.14700
C2300       C  0.91788727  0.87911757  0.98086791     0.37600
N2301       N  0.89808835  0.87799826  0.95323741    -0.89000
H2302       H  0.93003869  0.92246131  0.95591082     0.18700
H2303       H  0.94634295  0.83670356  0.55631926     0.18700
N2304       N  0.97381591  0.87914828  0.57069719    -0.88000
H2305       H  0.89648064  0.89763914  0.93476869     0.36100
H2306       H  0.87762497  0.87185969  0.97375653     0.41200
H2307       H  0.98145577  0.89869024  0.57213401     0.40800
H2308       H  0.99169740  0.86849510  0.55911102     0.35700
C2309       C  0.88316130  0.79773648  0.58137443    -0.26000
C2310       C  0.87169325  0.80925101  0.54545485    -0.14100
C2311       C  0.84139066  0.80913891  0.55140183     0.36500
C2312       C  0.82330877  0.79645710  0.59225924    -0.25500
C2313       C  0.83491954  0.78442558  0.62787632    -0.14700
C2314       C  0.86524226  0.78525664  0.62227934     0.37600
N2315       N  0.87780870  0.77236388  0.65760891    -0.89000
H2316       H  0.90637831  0.79726432  0.57676923     0.18700
H2317       H  0.80008634  0.79615265  0.59619094     0.18700
N2318       N  0.82885462  0.82211351  0.51638039    -0.88000
H2319       H  0.90036408  0.77487128  0.64820445     0.36100
H2320       H  0.87244827  0.75116799  0.66403132     0.41200
H2321       H  0.81648335  0.83826331  0.02472417     0.40800
H2322       H  0.81514110  0.80738048  0.51044756     0.35700
C2323       C  0.86192649  0.80839196  0.92567281    -0.26000
C2324       C  0.86922995  0.78984279  0.96023753    -0.14100
C2325       C  0.85462829  0.76361864  0.97590698     0.36500
C2326       C  0.83377630  0.75594162  0.95521702    -0.25500
C2327       C  0.82771419  0.77390714  0.91863861    -0.14700
C2328       C  0.84109988  0.80079549  0.90486463     0.37600
N2329       N  0.83373149  0.82013093  0.86957615    -0.89000
H2330       H  0.87298094  0.82873882  0.91442682     0.18700
H2331       H  0.82330956  0.73537587  0.96641524     0.18700
N2332       N  0.86116032  0.74428236  0.01169862    -0.88000
H2333       H  0.84577861  0.83891365  0.86336853     0.36100
H2334       H  0.81208611  0.82421764  0.87993588     0.41200
H2335       H  0.85748475  0.75319809  0.03918881     0.40800
H2336       H  0.88308873  0.74063622  0.00344097     0.35700
loop_ 
_geom_bond_atom_site_label_1 
_geom_bond_atom_site_label_2 
_geom_bond_distance 
_geom_bond_site_symmetry_2 
_ccdc_geom_bond_type 
N1            C2   1.357   1_554  A
N1          C297   1.357   1_554  A
N1          C266   1.445       .  S
C2          C295   1.380       .  A
C2          C547   1.473   1_556  S
C3            C4   1.369       .  A
C3          C294   1.380       .  A
C3            H6   1.083       .  S
C4            C5   1.380       .  A
C4            H7   1.082       .  S
C5          N293   1.357       .  A
C5          C280   1.468       .  S
N8           C12   1.365       .  A
N8            C9   1.370       .  A
N8          C241   1.463   1_554  S
C9           C10   1.384       .  A
C9          C213   1.479   1_554  S
C10          C11   1.360       .  A
C10          H13   1.083       .  S
C11          C12   1.377       .  A
C11          H14   1.082       .  S
C12         C227   1.484       .  S
N15          C19   1.356       .  A
N15          C16   1.360       .  A
N15         C491   1.448       .  S
C16          C17   1.384       .  A
C16         C171   1.474       .  S
C17          C18   1.366       .  A
C17          H20   1.083       .  S
C18          C19   1.377       .  A
C18          H21   1.082       .  S
C19         C185   1.467       .  S
N22          C27   1.352       .  A
N22        C1194   1.350       .  A
N22          H54   1.039       .  S
N23          C30   1.352       .  A
N23         C615   1.351       .  A
N24          C28   1.354   1_455  A
N24         C321   1.350       .  A
N24          H55   1.040       .  S
N25          C32   1.351       .  A
N25         C325   1.354       .  A
C26        N1190   1.349       .  A
C26          C34   1.388       .  A
C26          C42   1.413       .  A
C27          C43   1.411       .  A
C27          C35   1.387       .  A
C28          C36   1.389   1_655  A
C28        C1213   1.419       .  A
C29         N316   1.352       .  A
C29          C44   1.416   1_556  A
C29          C37   1.384       .  A
C30          C42   1.412       .  A
C30          C38   1.384       .  A
C31         N607   1.351       .  A
C31          C45   1.420   1_565  A
C31          C39   1.389       .  A
C32          C43   1.412       .  A
C32         C332   1.385       .  A
C33         N317   1.352   1_554  A
C33          C41   1.388       .  A
C33         C628   1.416       .  A
C34        C1203   1.379       .  A
C34          H46   1.083       .  S
C35        C1202   1.378       .  A
C35          H47   1.082       .  S
C36         C329   1.381       .  A
C36          H48   1.082   1_455  S
C37         C328   1.380   1_455  A
C37          H49   1.082       .  S
C38         C623   1.376       .  A
C38          H50   1.082       .  S
C39         C622   1.375       .  A
C39          H51   1.082       .  S
C40          C41   1.373       .  A
C40         C324   1.385   1_554  A
C40          H52   1.083       .  S
C41          H53   1.081       .  S
C42         C252   1.490       .  S
C43         C502   1.484       .  S
C44         C617   1.417       .  A
C44         C154   1.497       .  S
C45        C1196   1.424       .  A
C45         C168   1.503       .  S
N56          C60   1.362       .  A
N56          C57   1.363       .  A
N56         C140   1.441       .  S
C57          C58   1.385       .  A
C57         C157   1.494       .  S
C58          C59   1.371       .  A
C58          H61   1.082       .  S
C59          C60   1.380       .  A
C59          H62   1.082       .  S
C60         C126   1.487       .  S
O63         Zr75   2.446       .  S
O63          C65   1.289       .  A
O64        Zr101   2.413       .  S
O64          C65   1.284       .  A
C65         C283   1.477       .  S
O66         Zr78   2.461       .  S
O66          C68   1.290       .  A
O67        Zr102   2.396       .  S
O67          C68   1.280       .  A
C68         C224   1.464       .  S
O69         Zr78   2.433       .  S
O69          C71   1.286       .  A
O70        Zr101   2.443       .  S
O70          C71   1.290       .  A
C71         C238   1.480       .  S
O72         Zr75   2.431       .  S
O72          C74   1.286       .  A
O73        Zr102   2.449       .  S
O73          C74   1.291       .  A
C74         C269   1.486       .  S
Zr75         O76   2.435       .  S
Zr75         O77   2.434       .  S
Zr75         O81   2.368       .  S
Zr75         O82   2.370       .  S
Zr75        O105   2.377       .  S
Zr75        O107   2.360       .  S
O76         H119   0.990       .  S
O77         H118   0.990       .  S
O77         H122   0.990       .  S
Zr78         O79   2.437       .  S
Zr78         O80   2.434       .  S
Zr78         O82   2.365       .  S
Zr78         O81   2.383       .  S
Zr78        O106   2.377       .  S
Zr78        O108   2.371       .  S
O79         H120   0.990       .  S
O79         H123   0.990       .  S
O80         H113   0.990       .  S
O81        Zr101   2.383       .  S
O82        Zr102   2.380       .  S
O82         H109   0.963       .  S
O83         Zr95   2.461       .  S
O83          C85   1.293       .  A
O84        Zr102   2.393       .  S
O84          C85   1.280       .  A
C85         C182   1.474       .  S
O86         Zr98   2.438       .  S
O86          C88   1.287       .  A
O87        Zr101   2.417       .  S
O87          C88   1.286       .  A
C88         C143   1.473       .  S
O89         Zr98   2.441       .  S
O89          C91   1.288       .  A
O90        Zr102   2.443       .  S
O90          C91   1.289       .  A
C91         C129   1.478       .  S
O92         Zr95   2.447       .  S
O92          C94   1.289       .  A
O93        Zr101   2.447       .  S
O93          C94   1.290       .  A
C94         C196   1.487       .  S
Zr95         O96   2.434       .  S
Zr95         O97   2.434       .  S
Zr95        O103   2.358       .  S
Zr95        O104   2.377       .  S
Zr95        O107   2.372       .  S
Zr95        O105   2.373       .  S
O96         H116   0.990       .  S
O96         H121   0.990       .  S
O97         H117   0.990       .  S
Zr98         O99   2.433       .  S
Zr98        O100   2.434       .  S
Zr98        O104   2.374       .  S
Zr98        O103   2.367       .  S
Zr98        O108   2.379       .  S
Zr98        O106   2.371       .  S
O99         H115   0.990       .  S
O100        H114   0.990       .  S
O100        H124   0.990       .  S
Zr101       O104   2.383       .  S
Zr101       O106   2.392       .  S
Zr101       O107   2.384       .  S
Zr102       O103   2.382       .  S
Zr102       O105   2.385       .  S
Zr102       O108   2.386       .  S
O103        H111   0.965       .  S
O106        H110   0.966       .  S
O107        H112   0.966       .  S
C125        C126   1.403       .  A
C125        C130   1.403       .  A
C125        H132   1.084       .  S
C126        C127   1.416       .  A
C127        C128   1.405       .  A
C127        N134   1.431       .  S
C128        C129   1.402       .  A
C128        H133   1.084       .  S
C129        C130   1.412       .  A
C130        N131   1.439       .  S
N131        H135   1.046       .  S
N131        H136   1.044       .  S
N134        H137   1.045       .  S
N134        H138   1.042       .  S
C139        C140   1.403       .  A
C139        C436   1.408   1_554  A
C139        H146   1.083       .  S
C140        C141   1.407       .  A
C141        C434   1.401       .  A
C141        N148   1.431       .  S
C142        C143   1.401       .  A
C142        C433   1.400       .  A
C142        H147   1.084       .  S
C143        C144   1.412       .  A
C144        C431   1.405       .  A
C144        N145   1.438       .  S
N145        H149   1.045       .  S
N145        H150   1.046       .  S
N148        H151   1.046       .  S
N148        H152   1.046       .  S
C153        C154   1.401       .  A
C153        C158   1.401       .  A
C153        H160   1.084       .  S
C154        C155   1.419       .  A
C155        C156   1.408       .  A
C155        N454   1.438   1_554  S
C156        C157   1.407       .  A
C156        H161   1.082       .  S
C157        C158   1.414       .  A
C158        N159   1.438       .  S
N159        H163   1.046       .  S
N159        H164   1.046       .  S
N162        C447   1.437       .  S
N162        H165   1.044       .  S
N162        H166   1.045       .  S
C167        C172   1.399       .  A
C167        C460   1.403   1_554  A
C167        H174   1.083       .  S
C168        C169   1.418       .  A
C168        C459   1.402       .  A
C169        C462   1.413       .  A
C169        N176   1.437       .  S
C170        C171   1.400   1_556  A
C170        C461   1.409       .  A
C170        H175   1.084       .  S
C171        C172   1.408       .  A
C172        N173   1.431       .  S
N173        H177   1.045       .  S
N173        H178   1.046       .  S
N176        H179   1.045       .  S
N176        H180   1.046       .  S
C181        C182   1.398       .  A
C181        C186   1.395       .  A
C181        H188   1.084       .  S
C182        C183   1.419       .  A
C183        C184   1.406       .  A
C183        N190   1.436       .  S
C184        C185   1.396       .  A
C184        H189   1.084       .  S
C185        C186   1.407       .  A
C186        N187   1.431       .  S
N187        H191   1.045       .  S
N187        H192   1.046       .  S
N190        H193   1.043       .  S
N190        H194   1.046       .  S
C195        C196   1.406       .  A
C195        C200   1.411       .  A
C195        H202   1.083       .  S
C196        C197   1.412       .  A
C197        C490   1.408       .  A
C197        N204   1.438       .  S
C198        C489   1.407       .  A
C198        C491   1.405   1_556  A
C198        H203   1.083       .  S
C199        N307   1.448       .  S
C199        C200   1.410       .  A
C199        C490   1.406       .  A
C200        N201   1.431       .  S
N201        H205   1.046       .  S
N201        H206   1.045       .  S
N204        H207   1.046       .  S
N204        H500   1.046       .  S
H208        N496   1.046       .  S
C209        C210   1.398   1_554  A
C209        C214   1.398       .  A
C209        H216   1.084       .  S
C210        C503   1.410       .  A
C210        C335   1.485       .  S
C211        C502   1.410       .  A
C211        C504   1.410       .  A
C211        N218   1.437       .  S
C212        C213   1.405       .  A
C212        C503   1.409       .  A
C212        H217   1.084       .  S
C213        C214   1.412   1_556  A
C214        N215   1.430       .  S
N215        H219   1.045       .  S
N215        H220   1.046       .  S
N218        H221   1.045       .  S
N218        H222   1.046       .  S
C223        C224   1.401       .  A
C223        C228   1.402       .  A
C223        H230   1.084       .  S
C224        C225   1.414       .  A
C225        C226   1.393       .  A
C225        N232   1.439       .  S
C226        C227   1.402       .  A
C226        H231   1.084       .  S
C227        C228   1.416       .  A
C228        N229   1.430       .  S
N229        H233   1.043       .  S
N229        H234   1.043       .  S
N232        H235   1.041       .  S
N232        H236   1.046       .  S
C237        C238   1.403       .  A
C237        C242   1.404       .  A
C237        H244   1.084       .  S
C238        C239   1.407       .  A
C239        C532   1.405       .  A
C239        N246   1.439       .  S
C240        C241   1.414       .  A
C240        C531   1.407       .  A
C240        H245   1.081   1_556  S
C241        C534   1.421       .  A
C242        C533   1.420       .  A
C242        N243   1.428       .  S
N243        H247   1.041       .  S
N243        H540   1.043       .  S
N246        H249   1.046       .  S
N246        H250   1.046       .  S
H248        N535   1.044   1_554  S
C251        C252   1.403       .  A
C251        C256   1.406       .  A
C251        H258   1.084       .  S
C252        C545   1.417       .  A
C253        C254   1.401       .  A
C253        C544   1.422       .  A
C253        N260   1.438       .  S
C254        C547   1.398       .  A
C254        H259   1.084       .  S
C255        C256   1.411       .  A
C255        C546   1.399       .  A
C255        C294   1.472       .  S
C256        N257   1.438       .  S
N257        H261   1.046       .  S
N257        H262   1.046       .  S
N260        H263   1.044       .  S
N260        H264   1.046       .  S
C265        C266   1.403       .  A
C265        C270   1.403       .  A
C265        H272   1.083       .  S
C266        C267   1.410       .  A
C267        C268   1.408       .  A
C267        N274   1.431       .  S
C268        C269   1.405       .  A
C268        H273   1.083       .  S
C269        C270   1.415       .  A
C270        N271   1.438       .  S
N271        H275   1.046       .  S
N271        H276   1.045       .  S
N274        H278   1.046       .  S
N274        H569   1.045       .  S
H277        N566   1.045       .  S
C279        C280   1.400       .  A
C279        C284   1.397       .  A
C279        H286   1.085       .  S
C280        C281   1.406       .  A
C281        C282   1.400       .  A
C281        N288   1.432       .  S
C282        C283   1.409       .  A
C282        H287   1.083       .  S
C283        C284   1.418       .  A
C284        N285   1.440       .  S
N285        H289   1.046       .  S
N285        H290   1.042       .  S
N288        H291   1.045       .  S
N288        H292   1.045       .  S
N293        C294   1.357       .  A
N293        C558   1.445       .  S
C295        C296   1.370       .  A
C295        H298   1.082       .  S
C296        C297   1.382       .  A
C296        H299   1.082       .  S
C297        C572   1.470       .  S
N300        C304   1.364       .  A
N300        C301   1.368       .  A
N300        C533   1.459       .  S
C301        C302   1.384       .  A
C301        C505   1.479       .  S
C302        C303   1.362       .  A
C302        H305   1.083       .  S
C303        C304   1.376       .  A
C303        H306   1.082       .  S
C304        C519   1.483       .  S
N307        C311   1.357       .  A
N307        C308   1.362       .  A
C308        C309   1.385       .  A
C308        C463   1.481       .  S
C309        C310   1.367       .  A
C309        H312   1.083       .  S
C310        C311   1.378       .  A
C310        H313   1.082       .  S
C311        C477   1.472       .  S
N314        C319   1.352       .  A
N314       C1486   1.350       .  A
N314        H346   1.039   1_556  S
N315        C322   1.354   1_556  A
N315        C907   1.351       .  A
N316        C320   1.355   1_455  A
N316        H347   1.038   1_556  S
N317        C324   1.351       .  A
C318       N1482   1.348       .  A
C318        C326   1.387       .  A
C318        C334   1.411   1_556  A
C319        C335   1.412       .  A
C319        C327   1.387       .  A
C320        C328   1.389       .  A
C320       C1505   1.423       .  A
C321        C336   1.411       .  A
C321        C329   1.384       .  A
C322        C334   1.414       .  A
C322        C330   1.384       .  A
C323        N899   1.347   1_544  A
C323        C337   1.415   1_554  A
C323        C331   1.388   1_545  A
C324        C335   1.412       .  A
C325        C333   1.387       .  A
C325        C920   1.416       .  A
C326       C1495   1.376       .  A
C326        H338   1.082       .  S
C327       C1494   1.379       .  A
C327        H339   1.082       .  S
C328        H340   1.082       .  S
C329        H341   1.082       .  S
C330        C915   1.377       .  A
C330        H342   1.082       .  S
C331        C914   1.376       .  A
C331        H343   1.082       .  S
C332        C333   1.373       .  A
C332        H344   1.082       .  S
C333        H345   1.080       .  S
C334        C544   1.494       .  S
C336        C909   1.418       .  A
C336        C446   1.499       .  S
C337       C1488   1.421       .  A
C337        C460   1.498       .  S
N348        C352   1.362       .  A
N348        C349   1.362       .  A
N348        C432   1.442       .  S
C349        C350   1.385       .  A
C349        C449   1.492       .  S
C350        C351   1.371       .  A
C350        H353   1.082       .  S
C351        C352   1.380       .  A
C351        H354   1.082       .  S
C352        C418   1.484       .  S
O355       Zr367   2.449       .  S
O355        C357   1.290       .  A
O356       Zr393   2.409       .  S
O356        C357   1.284       .  A
C357        C575   1.478       .  S
O358       Zr370   2.470       .  S
O358        C360   1.293       .  A
O359       Zr394   2.392       .  S
O359        C360   1.279       .  A
C360        C516   1.466       .  S
O361       Zr370   2.443       .  S
O361        C363   1.288       .  A
O362       Zr393   2.448       .  S
O362        C363   1.292       .  A
C363        C530   1.487       .  S
O364       Zr367   2.444       .  S
O364        C366   1.289       .  A
O365       Zr394   2.437       .  S
O365        C366   1.289       .  A
C366        C561   1.485       .  S
Zr367       O368   2.435       .  S
Zr367       O369   2.437       .  S
Zr367       O373   2.371       .  S
Zr367       O374   2.368       .  S
Zr367       O397   2.376       .  S
Zr367       O399   2.362       .  S
O368        H411   0.990       .  S
O369        H410   0.990       .  S
O369        H414   0.990       .  S
Zr370       O371   2.436       .  S
Zr370       O372   2.436       .  S
Zr370       O374   2.366       .  S
Zr370       O373   2.383       .  S
Zr370       O398   2.381       .  S
Zr370       O400   2.370       .  S
O371        H412   0.990       .  S
O371        H415   0.990       .  S
O372        H405   0.990       .  S
O373       Zr393   2.391       .  S
O374       Zr394   2.385       .  S
O374        H401   0.963       .  S
O375       Zr387   2.453       .  S
O375        C377   1.291       .  A
O376       Zr394   2.406       .  S
O376        C377   1.282       .  A
C377        C474   1.478       .  S
O378       Zr390   2.432       .  S
O378        C380   1.285       .  A
O379       Zr393   2.434       .  S
O379        C380   1.289       .  A
C380        C435   1.478       .  S
O381       Zr390   2.428       .  S
O381        C383   1.285       .  A
O382       Zr394   2.441       .  S
O382        C383   1.288       .  A
C383        C421   1.472       .  S
O384       Zr387   2.438       .  S
O384        C386   1.287       .  A
O385       Zr393   2.457       .  S
O385        C386   1.293       .  A
C386        C488   1.488       .  S
Zr387       O388   2.434       .  S
Zr387       O389   2.435       .  S
Zr387       O395   2.363       .  S
Zr387       O396   2.384       .  S
Zr387       O399   2.368       .  S
Zr387       O397   2.366       .  S
O388        H408   0.990       .  S
O388        H413   0.990       .  S
O389        H409   0.990       .  S
Zr390       O391   2.434       .  S
Zr390       O392   2.434       .  S
Zr390       O396   2.374       .  S
Zr390       O395   2.368       .  S
Zr390       O400   2.379       .  S
Zr390       O398   2.367       .  S
O391        H407   0.990       .  S
O392        H406   0.990       .  S
O392        H416   0.990       .  S
Zr393       O396   2.382       .  S
Zr393       O398   2.389       .  S
Zr393       O399   2.388       .  S
Zr394       O395   2.381       .  S
Zr394       O397   2.383       .  S
Zr394       O400   2.384       .  S
O395        H403   0.965       .  S
O398        H402   0.966       .  S
O399        H404   0.966       .  S
C417        C418   1.403       .  A
C417        C422   1.398       .  A
C417        H424   1.084       .  S
C418        C419   1.417       .  A
C419        C420   1.405       .  A
C419        N426   1.431       .  S
C420        C421   1.402       .  A
C420        H425   1.084       .  S
C421        C422   1.407       .  A
C422        N423   1.434       .  S
N423        H427   1.046       .  S
N423        H428   1.045       .  S
N426        H429   1.046       .  S
N426        H430   1.042       .  S
C431        C432   1.404       .  A
C431        H438   1.083       .  S
C432        C433   1.409       .  A
C433        N440   1.431       .  S
C434        C435   1.402   1_554  A
C434        H439   1.084       .  S
C435        C436   1.415       .  A
C436        N437   1.438       .  S
N437        H441   1.046       .  S
N437        H442   1.045       .  S
N440        H443   1.046       .  S
N440        H444   1.046       .  S
C445        C446   1.404       .  A
C445        C450   1.402       .  A
C445        H452   1.084       .  S
C446        C447   1.419       .  A
C447        C448   1.408       .  A
C448        C449   1.406       .  A
C448        H453   1.082       .  S
C449        C450   1.412       .  A
C450        N451   1.438       .  S
N451        H455   1.046       .  S
N451        H456   1.046       .  S
N454        H457   1.044       .  S
N454        H458   1.045       .  S
C459        C464   1.399       .  A
C459        H466   1.083       .  S
C460        C461   1.417       .  A
C461        N468   1.437       .  S
C462        C463   1.402       .  A
C462        H467   1.083       .  S
C463        C464   1.409       .  A
C464        N465   1.431       .  S
N465        H469   1.045       .  S
N465        H470   1.046       .  S
N468        H471   1.045       .  S
N468        H472   1.046       .  S
C473        C474   1.399       .  A
C473        C478   1.396       .  A
C473        H480   1.084       .  S
C474        C475   1.419       .  A
C475        C476   1.408       .  A
C475        N482   1.437       .  S
C476        C477   1.398       .  A
C476        H481   1.084       .  S
C477        C478   1.407       .  A
C478        N479   1.431       .  S
N479        H483   1.045       .  S
N479        H484   1.046       .  S
N482        H485   1.043       .  S
N482        H486   1.046       .  S
C487        C488   1.406       .  A
C487        C492   1.411   1_556  A
C487        H494   1.083       .  S
C488        C489   1.413       .  A
C489        N496   1.438       .  S
C490        H495   1.083       .  S
C491        C492   1.410       .  A
C492        N493   1.431       .  S
N493        H497   1.046       .  S
N493        H498   1.045       .  S
N496        H499   1.046       .  S
C501        C502   1.397       .  A
C501        C506   1.397       .  A
C501        H508   1.084       .  S
C503        N510   1.437       .  S
C504        C505   1.405       .  A
C504        H509   1.084       .  S
C505        C506   1.412       .  A
C506        N507   1.430       .  S
N507        H511   1.045       .  S
N507        H512   1.046       .  S
N510        H513   1.045       .  S
N510        H514   1.046       .  S
C515        C516   1.400       .  A
C515        C520   1.400       .  A
C515        H522   1.084       .  S
C516        C517   1.416       .  A
C517        C518   1.397       .  A
C517        N524   1.439       .  S
C518        C519   1.402       .  A
C518        H523   1.084       .  S
C519        C520   1.415       .  A
C520        N521   1.429       .  S
N521        H525   1.043       .  S
N521        H526   1.043       .  S
N524        H527   1.042       .  S
N524        H528   1.045       .  S
C529        C530   1.405       .  A
C529        C534   1.406       .  A
C529        H536   1.084       .  S
C530        C531   1.408       .  A
C531        N538   1.439       .  S
C532        C533   1.414       .  A
C532        H537   1.082       .  S
C534        N535   1.428       .  S
N535        H539   1.041       .  S
N538        H541   1.046       .  S
N538        H542   1.046       .  S
C543        C544   1.403   1_556  A
C543        C548   1.405       .  A
C543        H550   1.084       .  S
C545        C546   1.399       .  A
C545        N552   1.433       .  S
C546        H551   1.084       .  S
C547        C548   1.410   1_554  A
C548        N549   1.438       .  S
N549        H553   1.046       .  S
N549        H554   1.045       .  S
N552        H555   1.045       .  S
N552        H556   1.043       .  S
C557        C558   1.404       .  A
C557        C562   1.404       .  A
C557        H564   1.083       .  S
C558        C559   1.410       .  A
C559        C560   1.408       .  A
C559        N566   1.431       .  S
C560        C561   1.406       .  A
C560        H565   1.082       .  S
C561        C562   1.413       .  A
C562        N563   1.438       .  S
N563        H567   1.046       .  S
N563        H568   1.046       .  S
N566        H570   1.046       .  S
C571        C572   1.401       .  A
C571        C576   1.400       .  A
C571        H578   1.084       .  S
C572        C573   1.408       .  A
C573        C574   1.400       .  A
C573        N580   1.432   1_556  S
C574        C575   1.409       .  A
C574        H579   1.083       .  S
C575        C576   1.411       .  A
C576        N577   1.438       .  S
N577        H581   1.046       .  S
N577        H582   1.046       .  S
N580        H583   1.044       .  S
N580        H584   1.045       .  S
N585        C881   1.359   1_554  A
N585        C586   1.360   1_554  A
N585        C850   1.449       .  S
C586        C879   1.380       .  A
C586       C1131   1.474   1_556  S
C587        C878   1.380       .  A
C587        C588   1.368       .  A
C587        H590   1.082       .  S
C588        C589   1.380       .  A
C588        H591   1.082       .  S
C589        N877   1.357       .  A
C589        C864   1.468       .  S
N592        C596   1.365       .  A
N592        C593   1.370       .  A
N592        C825   1.462   1_554  S
C593        C594   1.384       .  A
C593        C797   1.482   1_554  S
C594        C595   1.360       .  A
C594        H597   1.083       .  S
C595        C596   1.377       .  A
C595        H598   1.082       .  S
C596        C811   1.484       .  S
N599        C603   1.357       .  A
N599        C600   1.359       .  A
N599       C1075   1.444       .  S
C600        C601   1.383       .  A
C600        C755   1.477       .  S
C601        C602   1.369       .  A
C601        H604   1.083       .  S
C602        C603   1.379       .  A
C602        H605   1.082       .  S
C603        C769   1.472       .  S
N606        C611   1.351       .  A
N606       C1778   1.350       .  A
N606        H638   1.040       .  S
N607        C614   1.353       .  A
N608        C905   1.350       .  A
N608        C612   1.353   1_455  A
N608        H639   1.039       .  S
N609        C616   1.351       .  A
N609        C909   1.354   1_565  A
C610       N1774   1.351       .  A
C610        C618   1.387       .  A
C610        C626   1.413       .  A
C611        C627   1.411       .  A
C611        C619   1.387       .  A
C612        C620   1.390   1_655  A
C612       C1797   1.421       .  A
C613        N900   1.350       .  A
C613        C628   1.413   1_556  A
C613        C621   1.384       .  A
C614        C626   1.413       .  A
C614        C622   1.384       .  A
C615        C629   1.418       .  A
C615        C623   1.388       .  A
C616        C916   1.386       .  A
C616        C627   1.414       .  A
C617        N901   1.353   1_544  A
C617        C625   1.388       .  A
C618       C1787   1.378       .  A
C618        H630   1.082       .  S
C619       C1786   1.378       .  A
C619        H631   1.082       .  S
C620        C913   1.381       .  A
C620        H632   1.082   1_455  S
C621        C912   1.381       .  A
C621        H633   1.082       .  S
C622        H634   1.082       .  S
C623        H635   1.082       .  S
C624        C908   1.384   1_554  A
C624        C625   1.374   1_565  A
C624        H636   1.082       .  S
C625        H637   1.081       .  S
C626        C836   1.494       .  S
C627       C1086   1.484       .  S
C628        C738   1.493       .  S
C629       C1780   1.422       .  A
C629        C752   1.503       .  S
N640        C644   1.361       .  A
N640        C641   1.363       .  A
N640        C724   1.444       .  S
C641        C642   1.385       .  A
C641        C741   1.491       .  S
C642        C643   1.370       .  A
C642        H645   1.082       .  S
C643        C644   1.380       .  A
C643        H646   1.082       .  S
C644        C710   1.483       .  S
O647       Zr659   2.443       .  S
O647        C649   1.288       .  A
O648       Zr685   2.406       .  S
O648        C649   1.283       .  A
C649        C867   1.474       .  S
O650       Zr662   2.465       .  S
O650        C652   1.291       .  A
O651       Zr686   2.393       .  S
O651        C652   1.279       .  A
C652        C808   1.464       .  S
O653       Zr662   2.441       .  S
O653        C655   1.287       .  A
O654       Zr685   2.455       .  S
O654        C655   1.292       .  A
C655        C822   1.488       .  S
O656       Zr659   2.439       .  S
O656        C658   1.287       .  A
O657       Zr686   2.441       .  S
O657        C658   1.289       .  A
C658        C853   1.487       .  S
Zr659       O660   2.435       .  S
Zr659       O661   2.435       .  S
Zr659       O665   2.370       .  S
Zr659       O666   2.364       .  S
Zr659       O689   2.380       .  S
Zr659       O691   2.363       .  S
O660        H703   0.990       .  S
O661        H702   0.990       .  S
O661        H706   0.990       .  S
Zr662       O663   2.436       .  S
Zr662       O664   2.436       .  S
Zr662       O666   2.367       .  S
Zr662       O665   2.382       .  S
Zr662       O690   2.382       .  S
Zr662       O692   2.370       .  S
O663        H704   0.990       .  S
O663        H707   0.990       .  S
O664        H697   0.990       .  S
O665       Zr685   2.387       .  S
O666       Zr686   2.381       .  S
O666        H693   0.963       .  S
O667       Zr679   2.464       .  S
O667        C669   1.293       .  A
O668       Zr686   2.400       .  S
O668        C669   1.281       .  A
C669        C766   1.479       .  S
O670       Zr682   2.444       .  S
O670        C672   1.288       .  A
O671       Zr685   2.428       .  S
O671        C672   1.287       .  A
C672        C727   1.479       .  S
O673       Zr682   2.439       .  S
O673        C675   1.288       .  A
O674       Zr686   2.433       .  S
O674        C675   1.287       .  A
C675        C713   1.472       .  S
O676       Zr679   2.444       .  S
O676        C678   1.289       .  A
O677       Zr685   2.447       .  S
O677        C678   1.290       .  A
C678        C780   1.485       .  S
Zr679       O680   2.437       .  S
Zr679       O681   2.434       .  S
Zr679       O687   2.359       .  S
Zr679       O688   2.380       .  S
Zr679       O691   2.375       .  S
Zr679       O689   2.372       .  S
O680        H700   0.990       .  S
O680        H705   0.990       .  S
O681        H701   0.989       .  S
Zr682       O683   2.435       .  S
Zr682       O684   2.436       .  S
Zr682       O688   2.371       .  S
Zr682       O687   2.367       .  S
Zr682       O692   2.383       .  S
Zr682       O690   2.374       .  S
O683        H699   0.990       .  S
O684        H698   0.990       .  S
O684        H708   0.990       .  S
Zr685       O688   2.385       .  S
Zr685       O690   2.392       .  S
Zr685       O691   2.390       .  S
Zr686       O687   2.383       .  S
Zr686       O689   2.386       .  S
Zr686       O692   2.389       .  S
O687        H695   0.965       .  S
O690        H694   0.967       .  S
O691        H696   0.966       .  S
C709        C710   1.403       .  A
C709        C714   1.399       .  A
C709        H716   1.084       .  S
C710        C711   1.417       .  A
C711        C712   1.404       .  A
C711        N718   1.431       .  S
C712        C713   1.402       .  A
C712        H717   1.084       .  S
C713        C714   1.406       .  A
C714        N715   1.433       .  S
N715        H719   1.045       .  S
N715        H720   1.046       .  S
N718        H721   1.046       .  S
N718        H722   1.041       .  S
C723        C724   1.405       .  A
C723       C1020   1.405       .  A
C723        H730   1.083       .  S
C724        C725   1.410       .  A
C725       C1018   1.402       .  A
C725        N732   1.431       .  S
C726       C1017   1.405       .  A
C726        C727   1.404       .  A
C726        H731   1.084       .  S
C727        C728   1.412       .  A
C728       C1015   1.404       .  A
C728        N729   1.437       .  S
N729        H733   1.045       .  S
N729        H734   1.046       .  S
N732        H735   1.046       .  S
N732        H736   1.045       .  S
C737        C738   1.402       .  A
C737        C742   1.400       .  A
C737        H744   1.084       .  S
C738        C739   1.418       .  A
C739        C740   1.405       .  A
C739       N1038   1.438   1_554  S
C740        C741   1.406       .  A
C740        H745   1.082       .  S
C741        C742   1.414       .  A
C742        N743   1.439       .  S
N743        H747   1.046       .  S
N743        H748   1.045       .  S
N746       C1031   1.438       .  S
N746        H749   1.044       .  S
N746        H750   1.045       .  S
C751       C1044   1.404   1_554  A
C751        C756   1.400       .  A
C751        H758   1.083       .  S
C752       C1043   1.403       .  A
C752        C753   1.417       .  A
C753       C1046   1.412       .  A
C753        N760   1.437       .  S
C754       C1045   1.411       .  A
C754        C755   1.401   1_556  A
C754        H759   1.083       .  S
C755        C756   1.407       .  A
C756        N757   1.431       .  S
N757        H761   1.045       .  S
N757        H762   1.046       .  S
N760        H763   1.045       .  S
N760        H764   1.046       .  S
C765        C766   1.400       .  A
C765        C770   1.397       .  A
C765        H772   1.084       .  S
C766        C767   1.418       .  A
C767        C768   1.407       .  A
C767        N774   1.432       .  S
C768        C769   1.399       .  A
C768        H773   1.084       .  S
C769        C770   1.407       .  A
C770        N771   1.431       .  S
N771        H775   1.045       .  S
N771        H776   1.046       .  S
N774        H777   1.045       .  S
N774        H778   1.046       .  S
C779        C780   1.406       .  A
C779        C784   1.411       .  A
C779        H786   1.082       .  S
C780        C781   1.411       .  A
C781       C1074   1.406       .  A
C781        N788   1.438       .  S
C782       C1073   1.403       .  A
C782       C1075   1.404   1_556  A
C782        H787   1.083       .  S
C783        N891   1.448       .  S
C783       C1074   1.406       .  A
C783        C784   1.410       .  A
C784        N785   1.431       .  S
N785        H789   1.046       .  S
N785        H790   1.045       .  S
N788        H791   1.046       .  S
N788       H1084   1.046       .  S
H792       N1080   1.046       .  S
C793        C794   1.399   1_554  A
C793        C798   1.401       .  A
C793        H800   1.084       .  S
C794       C1087   1.409       .  A
C794        C919   1.487       .  S
C795       C1086   1.409       .  A
C795       C1088   1.410       .  A
C795        N802   1.436       .  S
C796       C1087   1.410       .  A
C796        C797   1.405       .  A
C796        H801   1.084       .  S
C797        C798   1.413   1_556  A
C798        N799   1.430       .  S
N799        H803   1.046       .  S
N799        H804   1.046       .  S
N802        H805   1.046       .  S
N802        H806   1.046       .  S
C807        C808   1.398       .  A
C807        C812   1.398       .  A
C807        H814   1.084       .  S
C808        C809   1.416       .  A
C809        C810   1.397       .  A
C809        N816   1.439       .  S
C810        C811   1.403       .  A
C810        H815   1.084       .  S
C811        C812   1.415       .  A
C812        N813   1.428       .  S
N813        H817   1.042       .  S
N813        H818   1.043       .  S
N816        H819   1.041       .  S
N816        H820   1.046       .  S
C821        C822   1.404       .  A
C821        C826   1.406       .  A
C821        H828   1.084       .  S
C822        C823   1.409       .  A
C823       C1116   1.409       .  A
C823        N830   1.439       .  S
C824       C1115   1.409       .  A
C824        C825   1.414       .  A
C824        H829   1.082       .  S
C825       C1118   1.420       .  A
C826       C1117   1.421       .  A
C826        N827   1.428       .  S
N827        H831   1.041       .  S
N827       H1124   1.043       .  S
N830        H833   1.046       .  S
N830        H834   1.046       .  S
H832       N1119   1.042   1_554  S
C835        C836   1.403       .  A
C835        C840   1.406       .  A
C835        H842   1.084       .  S
C836       C1129   1.417       .  A
C837       C1128   1.417       .  A
C837        C838   1.400       .  A
C837        N844   1.433       .  S
C838       C1131   1.400       .  A
C838        H843   1.084       .  S
C839       C1130   1.400       .  A
C839        C840   1.410       .  A
C839        C878   1.475       .  S
C840        N841   1.438       .  S
N841        H845   1.046       .  S
N841        H846   1.046       .  S
N844        H847   1.045       .  S
N844        H848   1.043       .  S
C849        C850   1.405       .  A
C849        C854   1.405       .  A
C849        H856   1.082       .  S
C850        C851   1.413       .  A
C851        C852   1.409       .  A
C851        N858   1.431       .  S
C852        C853   1.405       .  A
C852        H857   1.084       .  S
C853        C854   1.414       .  A
C854        N855   1.438       .  S
N855        H859   1.046       .  S
N855        H860   1.046       .  S
N858       H1153   1.045       .  S
N858        H862   1.046       .  S
H861       N1150   1.045       .  S
C863        C864   1.401       .  A
C863        C868   1.397       .  A
C863        H870   1.084       .  S
C864        C865   1.407       .  A
C865        C866   1.399       .  A
C865        N872   1.432       .  S
C866        C867   1.407       .  A
C866        H871   1.083       .  S
C867        C868   1.408       .  A
C868        N869   1.433       .  S
N869        H873   1.046       .  S
N869        H874   1.046       .  S
N872        H875   1.045       .  S
N872        H876   1.045       .  S
N877        C878   1.358       .  A
N877       C1142   1.446       .  S
C879        C880   1.367       .  A
C879        H882   1.083       .  S
C880        C881   1.379       .  A
C880        H883   1.082       .  S
C881       C1156   1.468       .  S
N884        C888   1.365       .  A
N884        C885   1.370       .  A
N884       C1117   1.461       .  S
C885        C886   1.384       .  A
C885       C1089   1.480       .  S
C886        C887   1.361       .  A
C886        H889   1.083       .  S
C887        C888   1.377       .  A
C887        H890   1.082       .  S
C888       C1103   1.484       .  S
N891        C895   1.358       .  A
N891        C892   1.363       .  A
C892        C893   1.384       .  A
C892       C1047   1.481       .  S
C893        C894   1.366       .  A
C893        H896   1.083       .  S
C894        C895   1.377       .  A
C894        H897   1.082       .  S
C895       C1061   1.474       .  S
N898        C903   1.352       .  A
N898       C2070   1.348       .  A
N898        H930   1.040   1_556  S
N899        C906   1.350   1_556  A
N900        C904   1.354   1_455  A
N900        H931   1.039   1_556  S
N901        C908   1.352       .  A
C902       N2066   1.350       .  A
C902        C910   1.387       .  A
C902        C918   1.413   1_556  A
C903        C919   1.410       .  A
C903        C911   1.387       .  A
C904        C912   1.389   1_655  A
C904       C2089   1.421       .  A
C905        C920   1.412       .  A
C905        C913   1.383       .  A
C906        C918   1.409       .  A
C906        C914   1.385       .  A
C907        C921   1.420       .  A
C907        C915   1.389   1_556  A
C908        C919   1.412       .  A
C909        C917   1.387       .  A
C910       C2079   1.380       .  A
C910        H922   1.082       .  S
C911       C2078   1.379       .  A
C911        H923   1.082       .  S
C912        H924   1.082   1_455  S
C913        H925   1.082       .  S
C914        H926   1.082       .  S
C915        H927   1.082       .  S
C916        C917   1.376   1_565  A
C916        H928   1.083       .  S
C917        H929   1.081       .  S
C918       C1128   1.492       .  S
C920       C1030   1.499       .  S
C921       C2072   1.423       .  A
C921       C1044   1.501       .  S
N932        C936   1.362       .  A
N932        C933   1.363       .  A
N932       C1016   1.442       .  S
C933        C934   1.386       .  A
C933       C1033   1.497       .  S
C934        C935   1.373       .  A
C934        H937   1.082       .  S
C935        C936   1.381       .  A
C935        H938   1.082       .  S
C936       C1002   1.487       .  S
O939       Zr951   2.447       .  S
O939        C941   1.289       .  A
O940       Zr977   2.409       .  S
O940        C941   1.283       .  A
C941       C1159   1.475       .  S
O942       Zr954   2.461       .  S
O942        C944   1.291       .  A
O943       Zr978   2.406       .  S
O943        C944   1.282       .  A
C944       C1100   1.467       .  S
O945       Zr954   2.440       .  S
O945        C947   1.287       .  A
O946       Zr977   2.454       .  S
O946        C947   1.292       .  A
C947       C1114   1.487       .  S
O948       Zr951   2.439       .  S
O948        C950   1.288       .  A
O949       Zr978   2.433       .  S
O949        C950   1.288       .  A
C950       C1145   1.482       .  S
Zr951       O952   2.434       .  S
Zr951       O953   2.437       .  S
Zr951       O957   2.364       .  S
Zr951       O958   2.360       .  S
Zr951       O981   2.379       .  S
Zr951       O983   2.362       .  S
O952        H995   0.990       .  S
O953        H994   0.990       .  S
O953        H998   0.990       .  S
Zr954       O955   2.437       .  S
Zr954       O956   2.434       .  S
Zr954       O958   2.364       .  S
Zr954       O957   2.378       .  S
Zr954       O982   2.379       .  S
Zr954       O984   2.375       .  S
O955        H996   0.990       .  S
O955        H999   0.990       .  S
O956        H989   0.990       .  S
O957       Zr977   2.381       .  S
O958       Zr978   2.381       .  S
O958        H985   0.964       .  S
O959       Zr971   2.454       .  S
O959        C961   1.291       .  A
O960       Zr978   2.414       .  S
O960        C961   1.284       .  A
C961       C1058   1.482       .  S
O962       Zr974   2.447       .  S
O962        C964   1.289       .  A
O963       Zr977   2.425       .  S
O963        C964   1.287       .  A
C964       C1019   1.476       .  S
O965       Zr974   2.443       .  S
O965        C967   1.288       .  A
O966       Zr978   2.441       .  S
O966        C967   1.289       .  A
C967       C1005   1.478       .  S
O968       Zr971   2.433       .  S
O968        C970   1.287       .  A
O969       Zr977   2.449       .  S
O969        C970   1.291       .  A
C970       C1072   1.482       .  S
Zr971       O972   2.437       .  S
Zr971       O973   2.435       .  S
Zr971       O979   2.360       .  S
Zr971       O980   2.380       .  S
Zr971       O983   2.372       .  S
Zr971       O981   2.368       .  S
O972        H992   0.990       .  S
O972        H997   0.990       .  S
O973        H993   0.990       .  S
Zr974       O975   2.434       .  S
Zr974       O976   2.434       .  S
Zr974       O980   2.376       .  S
Zr974       O979   2.370       .  S
Zr974       O984   2.379       .  S
Zr974       O982   2.375       .  S
O975        H991   0.990       .  S
O976        H990   0.990       .  S
O976       H1000   0.990       .  S
Zr977       O980   2.385       .  S
Zr977       O982   2.392       .  S
Zr977       O983   2.388       .  S
Zr978       O979   2.381       .  S
Zr978       O981   2.385       .  S
Zr978       O984   2.386       .  S
O979        H987   0.965       .  S
O982        H986   0.966       .  S
O983        H988   0.966       .  S
C1001      C1002   1.404       .  A
C1001      C1006   1.401       .  A
C1001      H1008   1.084       .  S
C1002      C1003   1.417       .  A
C1003      C1004   1.406       .  A
C1003      N1010   1.431       .  S
C1004      C1005   1.403       .  A
C1004      H1009   1.084       .  S
C1005      C1006   1.408       .  A
C1006      N1007   1.433       .  S
N1007      H1011   1.046       .  S
N1007      H1012   1.046       .  S
N1010      H1013   1.045       .  S
N1010      H1014   1.042       .  S
C1015      C1016   1.403       .  A
C1015      H1022   1.083       .  S
C1016      C1017   1.409       .  A
C1017      N1024   1.431       .  S
C1018      C1019   1.401   1_554  A
C1018      H1023   1.084       .  S
C1019      C1020   1.409   1_556  A
C1020      N1021   1.432   1_554  S
N1021      H1025   1.046       .  S
N1021      H1026   1.046       .  S
N1024      H1027   1.046       .  S
N1024      H1028   1.046       .  S
C1029      C1030   1.404       .  A
C1029      C1034   1.403       .  A
C1029      H1036   1.084       .  S
C1030      C1031   1.419       .  A
C1031      C1032   1.407       .  A
C1032      C1033   1.407       .  A
C1032      H1037   1.082       .  S
C1033      C1034   1.414       .  A
C1034      N1035   1.438       .  S
N1035      H1039   1.046       .  S
N1035      H1040   1.046       .  S
N1038      H1041   1.044       .  S
N1038      H1042   1.045       .  S
C1043      C1048   1.401       .  A
C1043      H1050   1.084       .  S
C1044      C1045   1.417       .  A
C1045      N1052   1.437       .  S
C1046      C1047   1.402       .  A
C1046      H1051   1.083       .  S
C1047      C1048   1.410       .  A
C1048      N1049   1.432       .  S
N1049      H1053   1.045       .  S
N1049      H1054   1.046       .  S
N1052      H1055   1.045       .  S
N1052      H1056   1.046       .  S
C1057      C1058   1.402       .  A
C1057      C1062   1.398       .  A
C1057      H1064   1.084       .  S
C1058      C1059   1.419       .  A
C1059      C1060   1.409       .  A
C1059      N1066   1.437       .  S
C1060      C1061   1.398       .  A
C1060      H1065   1.084       .  S
C1061      C1062   1.407       .  A
C1062      N1063   1.432       .  S
N1063      H1067   1.045       .  S
N1063      H1068   1.046       .  S
N1066      H1069   1.044       .  S
N1066      H1070   1.046       .  S
C1071      C1072   1.406       .  A
C1071      C1076   1.410   1_556  A
C1071      H1078   1.083       .  S
C1072      C1073   1.412       .  A
C1073      N1080   1.439       .  S
C1074      H1079   1.083       .  S
C1075      C1076   1.409       .  A
C1076      N1077   1.431       .  S
N1077      H1081   1.046       .  S
N1077      H1082   1.045       .  S
N1080      H1083   1.046       .  S
C1085      C1086   1.397       .  A
C1085      C1090   1.397       .  A
C1085      H1092   1.084       .  S
C1087      N1094   1.437       .  S
C1088      C1089   1.406       .  A
C1088      H1093   1.084       .  S
C1089      C1090   1.412       .  A
C1090      N1091   1.430       .  S
N1091      H1095   1.045       .  S
N1091      H1096   1.046       .  S
N1094      H1097   1.045       .  S
N1094      H1098   1.045       .  S
C1099      C1100   1.400       .  A
C1099      C1104   1.400       .  A
C1099      H1106   1.084       .  S
C1100      C1101   1.416       .  A
C1101      C1102   1.397       .  A
C1101      N1108   1.439       .  S
C1102      C1103   1.403       .  A
C1102      H1107   1.084       .  S
C1103      C1104   1.415       .  A
C1104      N1105   1.429       .  S
N1105      H1109   1.043       .  S
N1105      H1110   1.042       .  S
N1108      H1111   1.041       .  S
N1108      H1112   1.046       .  S
C1113      C1114   1.404       .  A
C1113      C1118   1.405       .  A
C1113      H1120   1.084       .  S
C1114      C1115   1.409       .  A
C1115      N1122   1.439       .  S
C1116      C1117   1.414       .  A
C1116      H1121   1.082       .  S
C1118      N1119   1.428       .  S
N1119      H1123   1.041       .  S
N1122      H1125   1.046       .  S
N1122      H1126   1.046       .  S
C1127      C1128   1.404   1_556  A
C1127      C1132   1.405       .  A
C1127      H1134   1.084       .  S
C1129      C1130   1.401       .  A
C1129      N1136   1.433       .  S
C1130      H1135   1.084       .  S
C1131      C1132   1.410   1_554  A
C1132      N1133   1.438       .  S
N1133      H1137   1.046       .  S
N1133      H1138   1.046       .  S
N1136      H1139   1.045       .  S
N1136      H1140   1.043       .  S
C1141      C1142   1.404       .  A
C1141      C1146   1.403       .  A
C1141      H1148   1.083       .  S
C1142      C1143   1.411       .  A
C1143      C1144   1.408       .  A
C1143      N1150   1.431       .  S
C1144      C1145   1.405       .  A
C1144      H1149   1.083       .  S
C1145      C1146   1.412       .  A
C1146      N1147   1.438       .  S
N1147      H1151   1.046       .  S
N1147      H1152   1.046       .  S
N1150      H1154   1.046       .  S
C1155      C1156   1.401       .  A
C1155      C1160   1.397       .  A
C1155      H1162   1.084       .  S
C1156      C1157   1.408       .  A
C1157      C1158   1.401       .  A
C1157      N1164   1.432   1_556  S
C1158      C1159   1.407       .  A
C1158      H1163   1.083       .  S
C1159      C1160   1.408       .  A
C1160      N1161   1.433       .  S
N1161      H1165   1.046       .  S
N1161      H1166   1.046       .  S
N1164      H1167   1.045       .  S
N1164      H1168   1.045   1_554  S
N1169      C1465   1.355   1_554  A
N1169      C1170   1.355   1_554  A
N1169      C1434   1.443       .  S
C1170      C1463   1.381       .  A
C1170      C1715   1.469   1_556  S
C1171      C1462   1.380       .  A
C1171      C1172   1.369       .  A
C1171      H1174   1.082       .  S
C1172      C1173   1.380       .  A
C1172      H1175   1.082       .  S
C1173      N1461   1.356       .  A
C1173      C1448   1.466       .  S
N1176      C1180   1.364       .  A
N1176      C1177   1.369       .  A
N1176      C1409   1.462   1_554  S
C1177      C1178   1.384       .  A
C1177      C1381   1.479   1_554  S
C1178      C1179   1.360       .  A
C1178      H1181   1.083       .  S
C1179      C1180   1.376       .  A
C1179      H1182   1.082       .  S
C1180      C1395   1.480       .  S
N1183      C1187   1.358       .  A
N1183      C1184   1.358       .  A
N1183      C1659   1.446       .  S
C1184      C1185   1.383       .  A
C1184      C1339   1.474       .  S
C1185      C1186   1.367       .  A
C1185      H1188   1.083       .  S
C1186      C1187   1.380       .  A
C1186      H1189   1.082       .  S
C1187      C1353   1.476       .  S
N1190      C1195   1.351       .  A
N1190      H1222   1.039       .  S
N1191      C1198   1.352       .  A
N1191      C1783   1.350       .  A
N1192      C1489   1.353       .  A
N1192      C1196   1.355       .  A
N1192      H1223   1.039       .  S
N1193      C1200   1.351       .  A
N1193      C1493   1.353       .  A
C1194      C1202   1.388       .  A
C1194      C1210   1.415   1_455  A
C1195      C1211   1.410       .  A
C1195      C1203   1.387       .  A
C1196      C1204   1.390       .  A
C1197      N1484   1.350       .  A
C1197      C1212   1.412   1_556  A
C1197      C1205   1.384       .  A
C1198      C1210   1.412       .  A
C1198      C1206   1.384       .  A
C1199      N1775   1.348   1_545  A
C1199      C1213   1.414       .  A
C1199      C1207   1.388   1_545  A
C1200      C1500   1.386       .  A
C1200      C1211   1.414       .  A
C1201      N1485   1.352   1_554  A
C1201      C1209   1.388       .  A
C1201      C1796   1.416       .  A
C1202      H1214   1.082       .  S
C1203      H1215   1.083       .  S
C1204      C1497   1.381       .  A
C1204      H1216   1.082       .  S
C1205      C1496   1.381       .  A
C1205      H1217   1.082       .  S
C1206      C1791   1.377       .  A
C1206      H1218   1.082       .  S
C1207      C1790   1.374       .  A
C1207      H1219   1.082       .  S
C1208      C1492   1.385   1_554  A
C1208      C1209   1.375       .  A
C1208      H1220   1.082       .  S
C1209      H1221   1.081       .  S
C1210      C1420   1.491       .  S
C1211      C1670   1.482       .  S
C1212      C1785   1.417       .  A
C1212      C1322   1.498       .  S
C1213      C1336   1.494       .  S
N1224      C1228   1.362       .  A
N1224      C1225   1.362       .  A
N1224      C1308   1.442       .  S
C1225      C1226   1.384       .  A
C1225      C1325   1.491       .  S
C1226      C1227   1.371       .  A
C1226      H1229   1.082       .  S
C1227      C1228   1.382       .  A
C1227      H1230   1.082       .  S
C1228      C1294   1.487       .  S
O1231     Zr1243   2.446       .  S
O1231      C1233   1.289       .  A
O1232     Zr1269   2.399       .  S
O1232      C1233   1.282       .  A
C1233      C1451   1.469       .  S
O1234     Zr1246   2.455       .  S
O1234      C1236   1.289       .  A
O1235     Zr1270   2.397       .  S
O1235      C1236   1.280       .  A
C1236      C1392   1.459       .  S
O1237     Zr1246   2.437       .  S
O1237      C1239   1.287       .  A
O1238     Zr1269   2.454       .  S
O1238      C1239   1.293       .  A
C1239      C1406   1.486       .  S
O1240     Zr1243   2.438       .  S
O1240      C1242   1.288       .  A
O1241     Zr1270   2.440       .  S
O1241      C1242   1.289       .  A
C1242      C1437   1.483       .  S
Zr1243     O1244   2.435       .  S
Zr1243     O1245   2.437       .  S
Zr1243     O1249   2.366       .  S
Zr1243     O1250   2.366       .  S
Zr1243     O1273   2.379       .  S
Zr1243     O1275   2.358       .  S
O1244      H1287   0.990       .  S
O1245      H1286   0.990       .  S
O1245      H1290   0.990       .  S
Zr1246     O1247   2.436       .  S
Zr1246     O1248   2.435       .  S
Zr1246     O1250   2.367       .  S
Zr1246     O1249   2.379       .  S
Zr1246     O1274   2.380       .  S
Zr1246     O1276   2.370       .  S
O1247      H1288   0.990       .  S
O1247      H1291   0.990       .  S
O1248      H1281   0.990       .  S
O1249     Zr1269   2.383       .  S
O1250     Zr1270   2.385       .  S
O1250      H1277   0.964       .  S
O1251     Zr1263   2.452       .  S
O1251      C1253   1.291       .  A
O1252     Zr1270   2.412       .  S
O1252      C1253   1.283       .  A
C1253      C1350   1.484       .  S
O1254     Zr1266   2.443       .  S
O1254      C1256   1.288       .  A
O1255     Zr1269   2.420       .  S
O1255      C1256   1.285       .  A
C1256      C1311   1.474       .  S
O1257     Zr1266   2.437       .  S
O1257      C1259   1.287       .  A
O1258     Zr1270   2.446       .  S
O1258      C1259   1.289       .  A
C1259      C1297   1.478       .  S
O1260     Zr1263   2.440       .  S
O1260      C1262   1.288       .  A
O1261     Zr1269   2.450       .  S
O1261      C1262   1.291       .  A
C1262      C1364   1.486       .  S
Zr1263     O1264   2.434       .  S
Zr1263     O1265   2.436       .  S
Zr1263     O1271   2.362       .  S
Zr1263     O1272   2.382       .  S
Zr1263     O1275   2.367       .  S
Zr1263     O1273   2.367       .  S
O1264      H1284   0.990       .  S
O1264      H1289   0.990       .  S
O1265      H1285   0.990       .  S
Zr1266     O1267   2.433       .  S
Zr1266     O1268   2.436       .  S
Zr1266     O1272   2.373       .  S
Zr1266     O1271   2.370       .  S
Zr1266     O1276   2.378       .  S
Zr1266     O1274   2.367       .  S
O1267      H1283   0.990       .  S
O1268      H1282   0.990       .  S
O1268      H1292   0.990       .  S
Zr1269     O1272   2.382       .  S
Zr1269     O1274   2.387       .  S
Zr1269     O1275   2.384       .  S
Zr1270     O1271   2.380       .  S
Zr1270     O1273   2.385       .  S
Zr1270     O1276   2.385       .  S
O1271      H1279   0.965       .  S
O1274      H1278   0.967       .  S
O1275      H1280   0.965       .  S
C1293      C1294   1.403       .  A
C1293      C1298   1.399       .  A
C1293      H1300   1.084       .  S
C1294      C1295   1.418       .  A
C1295      C1296   1.407       .  A
C1295      N1302   1.432       .  S
C1296      C1297   1.403       .  A
C1296      H1301   1.084       .  S
C1297      C1298   1.407       .  A
C1298      N1299   1.433       .  S
N1299      H1303   1.046       .  S
N1299      H1304   1.046       .  S
N1302      H1305   1.045       .  S
N1302      H1306   1.041       .  S
C1307      C1308   1.403       .  A
C1307      C1604   1.402   1_554  A
C1307      H1314   1.083       .  S
C1308      C1309   1.410       .  A
C1309      C1602   1.404       .  A
C1309      N1316   1.431       .  S
C1310      C1601   1.404       .  A
C1310      C1311   1.403       .  A
C1310      H1315   1.084       .  S
C1311      C1312   1.408       .  A
C1312      C1599   1.402       .  A
C1312      N1313   1.432       .  S
N1313      H1317   1.046       .  S
N1313      H1318   1.046       .  S
N1316      H1319   1.046       .  S
N1316      H1320   1.045       .  S
C1321      C1322   1.404       .  A
C1321      C1326   1.401       .  A
C1321      H1328   1.084       .  S
C1322      C1323   1.420       .  A
C1323      C1324   1.407       .  A
C1323      N1622   1.438   1_554  S
C1324      C1325   1.406       .  A
C1324      H1329   1.083       .  S
C1325      C1326   1.411       .  A
C1326      N1327   1.438       .  S
N1327      H1331   1.046       .  S
N1327      H1332   1.046       .  S
N1330      C1615   1.438       .  S
N1330      H1333   1.044       .  S
N1330      H1334   1.045       .  S
C1335      C1628   1.403   1_554  A
C1335      C1340   1.397       .  A
C1335      H1342   1.083       .  S
C1336      C1627   1.400       .  A
C1336      C1337   1.416       .  A
C1337      C1630   1.411       .  A
C1337      N1344   1.437       .  S
C1338      C1629   1.411       .  A
C1338      C1339   1.401   1_556  A
C1338      H1343   1.084       .  S
C1339      C1340   1.406       .  A
C1340      N1341   1.432       .  S
N1341      H1345   1.045       .  S
N1341      H1346   1.046       .  S
N1344      H1347   1.045       .  S
N1344      H1348   1.046       .  S
C1349      C1350   1.402       .  A
C1349      C1354   1.396       .  A
C1349      H1356   1.084       .  S
C1350      C1351   1.420       .  A
C1351      C1352   1.410       .  A
C1351      N1358   1.438       .  S
C1352      C1353   1.399       .  A
C1352      H1357   1.084       .  S
C1353      C1354   1.408       .  A
C1354      N1355   1.433       .  S
N1355      H1359   1.046       .  S
N1355      H1360   1.046       .  S
N1358      H1361   1.045       .  S
N1358      H1362   1.046       .  S
C1363      C1364   1.406       .  A
C1363      C1368   1.411       .  A
C1363      H1370   1.082       .  S
C1364      C1365   1.412       .  A
C1365      C1658   1.406       .  A
C1365      N1372   1.438       .  S
C1366      C1657   1.404       .  A
C1366      C1659   1.405   1_556  A
C1366      H1371   1.083       .  S
C1367      N1475   1.448       .  S
C1367      C1658   1.406       .  A
C1367      C1368   1.409       .  A
C1368      N1369   1.431       .  S
N1369      H1373   1.046       .  S
N1369      H1374   1.045       .  S
N1372      H1375   1.046       .  S
N1372      H1668   1.046       .  S
H1376      N1664   1.046       .  S
C1377      C1378   1.397   1_554  A
C1377      C1382   1.399       .  A
C1377      H1384   1.084       .  S
C1378      C1671   1.407       .  A
C1378      C1503   1.482       .  S
C1379      C1670   1.409       .  A
C1379      C1672   1.409       .  A
C1379      N1386   1.436       .  S
C1380      C1671   1.408       .  A
C1380      C1381   1.404       .  A
C1380      H1385   1.083       .  S
C1381      C1382   1.413   1_556  A
C1382      N1383   1.429       .  S
N1383      H1387   1.046       .  S
N1383      H1388   1.046       .  S
N1386      H1389   1.046       .  S
N1386      H1390   1.046       .  S
C1391      C1392   1.398       .  A
C1391      C1396   1.396       .  A
C1391      H1398   1.084       .  S
C1392      C1393   1.414       .  A
C1393      C1394   1.396       .  A
C1393      N1400   1.439       .  S
C1394      C1395   1.403       .  A
C1394      H1399   1.084       .  S
C1395      C1396   1.414       .  A
C1396      N1397   1.429       .  S
N1397      H1401   1.043       .  S
N1397      H1402   1.042       .  S
N1400      H1403   1.042       .  S
N1400      H1404   1.045       .  S
C1405      C1406   1.405       .  A
C1405      C1410   1.406       .  A
C1405      H1412   1.084       .  S
C1406      C1407   1.408       .  A
C1407      C1700   1.407       .  A
C1407      N1414   1.439       .  S
C1408      C1699   1.408       .  A
C1408      C1409   1.415       .  A
C1408      H1413   1.082   1_556  S
C1409      C1702   1.420       .  A
C1410      C1701   1.421       .  A
C1410      N1411   1.429       .  S
N1411      H1415   1.040       .  S
N1411      H1708   1.043       .  S
N1414      H1417   1.046       .  S
N1414      H1418   1.046       .  S
H1416      N1703   1.043   1_554  S
C1419      C1420   1.402       .  A
C1419      C1424   1.404       .  A
C1419      H1426   1.084       .  S
C1420      C1713   1.417       .  A
C1421      C1712   1.415       .  A
C1421      C1422   1.399       .  A
C1421      N1428   1.433       .  S
C1422      C1715   1.399       .  A
C1422      H1427   1.083       .  S
C1423      C1714   1.400       .  A
C1423      C1424   1.410       .  A
C1423      C1462   1.472       .  S
C1424      N1425   1.438       .  S
N1425      H1429   1.046       .  S
N1425      H1430   1.046       .  S
N1428      H1431   1.046       .  S
N1428      H1432   1.044       .  S
C1433      C1434   1.403       .  A
C1433      C1438   1.403       .  A
C1433      H1440   1.083       .  S
C1434      C1435   1.409       .  A
C1435      C1436   1.407       .  A
C1435      N1442   1.431       .  S
C1436      C1437   1.406       .  A
C1436      H1441   1.083       .  S
C1437      C1438   1.413       .  A
C1438      N1439   1.438       .  S
N1439      H1443   1.046       .  S
N1439      H1444   1.046       .  S
N1442      H1737   1.046       .  S
N1442      H1446   1.046       .  S
H1445      N1734   1.046       .  S
C1447      C1448   1.401       .  A
C1447      C1452   1.396       .  A
C1447      H1454   1.084       .  S
C1448      C1449   1.407       .  A
C1449      C1450   1.399       .  A
C1449      N1456   1.432       .  S
C1450      C1451   1.407       .  A
C1450      H1455   1.083       .  S
C1451      C1452   1.406       .  A
C1452      N1453   1.433       .  S
N1453      H1457   1.046       .  S
N1453      H1458   1.046       .  S
N1456      H1459   1.045       .  S
N1456      H1460   1.045       .  S
N1461      C1462   1.357       .  A
N1461      C1726   1.445       .  S
C1463      C1464   1.368       .  A
C1463      H1466   1.082       .  S
C1464      C1465   1.380       .  A
C1464      H1467   1.082       .  S
C1465      C1740   1.465       .  S
N1468      C1472   1.363       .  A
N1468      C1469   1.367       .  A
N1468      C1701   1.460       .  S
C1469      C1470   1.385       .  A
C1469      C1673   1.476       .  S
C1470      C1471   1.361       .  A
C1470      H1473   1.083       .  S
C1471      C1472   1.377       .  A
C1471      H1474   1.083       .  S
C1472      C1687   1.479       .  S
N1475      C1479   1.358       .  A
N1475      C1476   1.361       .  A
C1476      C1477   1.384       .  A
C1476      C1631   1.478       .  S
C1477      C1478   1.367       .  A
C1477      H1480   1.083       .  S
C1478      C1479   1.378       .  A
C1478      H1481   1.082       .  S
C1479      C1645   1.475       .  S
N1482      C1487   1.351       .  A
N1482      H1514   1.040   1_556  S
N1483      C1490   1.351   1_556  A
N1483      C2075   1.350   1_556  A
N1484      C1488   1.354       .  A
N1484      H1515   1.040   1_556  S
N1485      C1492   1.351       .  A
C1486      C1494   1.388       .  A
C1486      C1502   1.414   1_456  A
C1487      C1503   1.408       .  A
C1487      C1495   1.386       .  A
C1488      C1496   1.389       .  A
C1489      C1504   1.416       .  A
C1489      C1497   1.384       .  A
C1490      C1502   1.409       .  A
C1490      C1498   1.384       .  A
C1491      N2067   1.350       .  A
C1491      C1505   1.418   1_565  A
C1491      C1499   1.389   1_556  A
C1492      C1503   1.411       .  A
C1493      C1501   1.387       .  A
C1493      C2088   1.416       .  A
C1494      H1506   1.082       .  S
C1495      H1507   1.082       .  S
C1496      H1508   1.082       .  S
C1497      H1509   1.082       .  S
C1498      C2083   1.373       .  A
C1498      H1510   1.082       .  S
C1499      C2082   1.373       .  A
C1499      H1511   1.082       .  S
C1500      C1501   1.374       .  A
C1500      H1512   1.083       .  S
C1501      H1513   1.081       .  S
C1502      C1712   1.487       .  S
C1504      C2077   1.418       .  A
C1504      C1614   1.502       .  S
C1505      C1628   1.500       .  S
N1516      C1520   1.360       .  A
N1516      C1517   1.362       .  A
N1516      C1600   1.441       .  S
C1517      C1518   1.386       .  A
C1517      C1617   1.495       .  S
C1518      C1519   1.372       .  A
C1518      H1521   1.082       .  S
C1519      C1520   1.380       .  A
C1519      H1522   1.082       .  S
C1520      C1586   1.483       .  S
O1523     Zr1535   2.443       .  S
O1523      C1525   1.289       .  A
O1524     Zr1561   2.397       .  S
O1524      C1525   1.281       .  A
C1525      C1743   1.470       .  S
O1526     Zr1538   2.454       .  S
O1526      C1528   1.290       .  A
O1527     Zr1562   2.393       .  S
O1527      C1528   1.280       .  A
C1528      C1684   1.458       .  S
O1529     Zr1538   2.437       .  S
O1529      C1531   1.287       .  A
O1530     Zr1561   2.455       .  S
O1530      C1531   1.293       .  A
C1531      C1698   1.487       .  S
O1532     Zr1535   2.446       .  S
O1532      C1534   1.289       .  A
O1533     Zr1562   2.440       .  S
O1533      C1534   1.289       .  A
C1534      C1729   1.486       .  S
Zr1535     O1536   2.435       .  S
Zr1535     O1537   2.435       .  S
Zr1535     O1541   2.367       .  S
Zr1535     O1542   2.361       .  S
Zr1535     O1565   2.380       .  S
Zr1535     O1567   2.363       .  S
O1536      H1579   0.990       .  S
O1537      H1578   0.990       .  S
O1537      H1582   0.989       .  S
Zr1538     O1539   2.437       .  S
Zr1538     O1540   2.433       .  S
Zr1538     O1542   2.365       .  S
Zr1538     O1541   2.377       .  S
Zr1538     O1566   2.377       .  S
Zr1538     O1568   2.370       .  S
O1539      H1580   0.990       .  S
O1539      H1583   0.990       .  S
O1540      H1573   0.990       .  S
O1541     Zr1561   2.385       .  S
O1542     Zr1562   2.383       .  S
O1542      H1569   0.962       .  S
O1543     Zr1555   2.454       .  S
O1543      C1545   1.291       .  A
O1544     Zr1562   2.414       .  S
O1544      C1545   1.284       .  A
C1545      C1642   1.483       .  S
O1546     Zr1558   2.445       .  S
O1546      C1548   1.289       .  A
O1547     Zr1561   2.422       .  S
O1547      C1548   1.286       .  A
C1548      C1603   1.478       .  S
O1549     Zr1558   2.436       .  S
O1549      C1551   1.287       .  A
O1550     Zr1562   2.439       .  S
O1550      C1551   1.288       .  A
C1551      C1589   1.474       .  S
O1552     Zr1555   2.430       .  S
O1552      C1554   1.286       .  A
O1553     Zr1561   2.453       .  S
O1553      C1554   1.292       .  A
C1554      C1656   1.484       .  S
Zr1555     O1556   2.435       .  S
Zr1555     O1557   2.435       .  S
Zr1555     O1563   2.361       .  S
Zr1555     O1564   2.383       .  S
Zr1555     O1567   2.367       .  S
Zr1555     O1565   2.366       .  S
O1556      H1576   0.990       .  S
O1556      H1581   0.990       .  S
O1557      H1577   0.990       .  S
Zr1558     O1559   2.434       .  S
Zr1558     O1560   2.435       .  S
Zr1558     O1564   2.374       .  S
Zr1558     O1563   2.373       .  S
Zr1558     O1568   2.375       .  S
Zr1558     O1566   2.367       .  S
O1559      H1575   0.990       .  S
O1560      H1574   0.990       .  S
O1560      H1584   0.990       .  S
Zr1561     O1564   2.381       .  S
Zr1561     O1566   2.387       .  S
Zr1561     O1567   2.386       .  S
Zr1562     O1563   2.381       .  S
Zr1562     O1565   2.383       .  S
Zr1562     O1568   2.384       .  S
O1563      H1571   0.965       .  S
O1566      H1570   0.967       .  S
O1567      H1572   0.966       .  S
C1585      C1586   1.403       .  A
C1585      C1590   1.400       .  A
C1585      H1592   1.084       .  S
C1586      C1587   1.416       .  A
C1587      C1588   1.405       .  A
C1587      N1594   1.431       .  S
C1588      C1589   1.402       .  A
C1588      H1593   1.084       .  S
C1589      C1590   1.407       .  A
C1590      N1591   1.433       .  S
N1591      H1595   1.046       .  S
N1591      H1596   1.046       .  S
N1594      H1597   1.045       .  S
N1594      H1598   1.042       .  S
C1599      C1600   1.402       .  A
C1599      H1606   1.083       .  S
C1600      C1601   1.409       .  A
C1601      N1608   1.431       .  S
C1602      C1603   1.404   1_554  A
C1602      H1607   1.084       .  S
C1603      C1604   1.409       .  A
C1604      N1605   1.432       .  S
N1605      H1609   1.046       .  S
N1605      H1610   1.046       .  S
N1608      H1611   1.046       .  S
N1608      H1612   1.046       .  S
C1613      C1614   1.404       .  A
C1613      C1618   1.403       .  A
C1613      H1620   1.084       .  S
C1614      C1615   1.421       .  A
C1615      C1616   1.407       .  A
C1616      C1617   1.406       .  A
C1616      H1621   1.082       .  S
C1617      C1618   1.413       .  A
C1618      N1619   1.438       .  S
N1619      H1623   1.046       .  S
N1619      H1624   1.046       .  S
N1622      H1625   1.044       .  S
N1622      H1626   1.045       .  S
C1627      C1632   1.398       .  A
C1627      H1634   1.084       .  S
C1628      C1629   1.418       .  A
C1629      N1636   1.437       .  S
C1630      C1631   1.402       .  A
C1630      H1635   1.084       .  S
C1631      C1632   1.409       .  A
C1632      N1633   1.431       .  S
N1633      H1637   1.045       .  S
N1633      H1638   1.046       .  S
N1636      H1639   1.045       .  S
N1636      H1640   1.046       .  S
C1641      C1642   1.401       .  A
C1641      C1646   1.397       .  A
C1641      H1648   1.084       .  S
C1642      C1643   1.420       .  A
C1643      C1644   1.410       .  A
C1643      N1650   1.437       .  S
C1644      C1645   1.399       .  A
C1644      H1649   1.084       .  S
C1645      C1646   1.408       .  A
C1646      N1647   1.432       .  S
N1647      H1651   1.046       .  S
N1647      H1652   1.046       .  S
N1650      H1653   1.044       .  S
N1650      H1654   1.046       .  S
C1655      C1656   1.406       .  A
C1655      C1660   1.410   1_556  A
C1655      H1662   1.083       .  S
C1656      C1657   1.413       .  A
C1657      N1664   1.439       .  S
C1658      H1663   1.083       .  S
C1659      C1660   1.408       .  A
C1660      N1661   1.431       .  S
N1661      H1665   1.045       .  S
N1661      H1666   1.045       .  S
N1664      H1667   1.046       .  S
C1669      C1670   1.397       .  A
C1669      C1674   1.397       .  A
C1669      H1676   1.084       .  S
C1671      N1678   1.436       .  S
C1672      C1673   1.404       .  A
C1672      H1677   1.084       .  S
C1673      C1674   1.412       .  A
C1674      N1675   1.430       .  S
N1675      H1679   1.045       .  S
N1675      H1680   1.046       .  S
N1678      H1681   1.046       .  S
N1678      H1682   1.046       .  S
C1683      C1684   1.398       .  A
C1683      C1688   1.397       .  A
C1683      H1690   1.084       .  S
C1684      C1685   1.415       .  A
C1685      C1686   1.394       .  A
C1685      N1692   1.439       .  S
C1686      C1687   1.401       .  A
C1686      H1691   1.084       .  S
C1687      C1688   1.415       .  A
C1688      N1689   1.428       .  S
N1689      H1693   1.043       .  S
N1689      H1694   1.042       .  S
N1692      H1695   1.041       .  S
N1692      H1696   1.046       .  S
C1697      C1698   1.405       .  A
C1697      C1702   1.406       .  A
C1697      H1704   1.084       .  S
C1698      C1699   1.408       .  A
C1699      N1706   1.439       .  S
C1700      C1701   1.413       .  A
C1700      H1705   1.082       .  S
C1702      N1703   1.429       .  S
N1703      H1707   1.040       .  S
N1706      H1709   1.046       .  S
N1706      H1710   1.046       .  S
C1711      C1712   1.402   1_556  A
C1711      C1716   1.404       .  A
C1711      H1718   1.084       .  S
C1713      C1714   1.400       .  A
C1713      N1720   1.433       .  S
C1714      H1719   1.083       .  S
C1715      C1716   1.410   1_554  A
C1716      N1717   1.438       .  S
N1717      H1721   1.046       .  S
N1717      H1722   1.046       .  S
N1720      H1723   1.045       .  S
N1720      H1724   1.044       .  S
C1725      C1726   1.403       .  A
C1725      C1730   1.404       .  A
C1725      H1732   1.082       .  S
C1726      C1727   1.410       .  A
C1727      C1728   1.409       .  A
C1727      N1734   1.431       .  S
C1728      C1729   1.407       .  A
C1728      H1733   1.082       .  S
C1729      C1730   1.412       .  A
C1730      N1731   1.438       .  S
N1731      H1735   1.046       .  S
N1731      H1736   1.046       .  S
N1734      H1738   1.046       .  S
C1739      C1740   1.401       .  A
C1739      C1744   1.395       .  A
C1739      H1746   1.085       .  S
C1740      C1741   1.408       .  A
C1741      C1742   1.399       .  A
C1741      N1748   1.432   1_556  S
C1742      C1743   1.407       .  A
C1742      H1747   1.084       .  S
C1743      C1744   1.407       .  A
C1744      N1745   1.433       .  S
N1745      H1749   1.046       .  S
N1745      H1750   1.046       .  S
N1748      H1751   1.044       .  S
N1748      H1752   1.045       .  S
N1753      C2049   1.354   1_554  A
N1753      C1754   1.355   1_554  A
N1753      C2018   1.443       .  S
C1754      C2047   1.380       .  A
C1754      C2299   1.469   1_556  S
C1755      C2046   1.381       .  A
C1755      C1756   1.368       .  A
C1755      H1758   1.083       .  S
C1756      C1757   1.380       .  A
C1756      H1759   1.082       .  S
C1757      N2045   1.356       .  A
C1757      C2032   1.465       .  S
N1760      C1764   1.365       .  A
N1760      C1761   1.369       .  A
N1760      C1993   1.461   1_554  S
C1761      C1762   1.383       .  A
C1761      C1965   1.479   1_554  S
C1762      C1763   1.359       .  A
C1762      H1765   1.083       .  S
C1763      C1764   1.378       .  A
C1763      H1766   1.082       .  S
C1764      C1979   1.482       .  S
N1767      C1771   1.356       .  A
N1767      C1768   1.360       .  A
N1767      C2243   1.447       .  S
C1768      C1769   1.384       .  A
C1768      C1923   1.476       .  S
C1769      C1770   1.367       .  A
C1769      H1772   1.083       .  S
C1770      C1771   1.377       .  A
C1770      H1773   1.082       .  S
C1771      C1937   1.468       .  S
N1774      C1779   1.352       .  A
N1774      H1806   1.039       .  S
N1775      C1782   1.350       .  A
N1776      C2073   1.352       .  A
N1776      C1780   1.355       .  A
N1776      H1807   1.040       .  S
N1777      C1784   1.351       .  A
N1777      C2077   1.353   1_565  A
C1778      C1786   1.387       .  A
C1778      C1794   1.413   1_455  A
C1779      C1795   1.411       .  A
C1779      C1787   1.387       .  A
C1780      C1788   1.389       .  A
C1781      N2068   1.352       .  A
C1781      C1796   1.415   1_556  A
C1781      C1789   1.384       .  A
C1782      C1794   1.408       .  A
C1782      C1790   1.384       .  A
C1783      C1797   1.420       .  A
C1783      C1791   1.389       .  A
C1784      C2084   1.385       .  A
C1784      C1795   1.413       .  A
C1785      N2069   1.353   1_544  A
C1785      C1793   1.388       .  A
C1786      H1798   1.082       .  S
C1787      H1799   1.082       .  S
C1788      C2081   1.381       .  A
C1788      H1800   1.082       .  S
C1789      C2080   1.381       .  A
C1789      H1801   1.082       .  S
C1790      H1802   1.082       .  S
C1791      H1803   1.082       .  S
C1792      C2076   1.385   1_554  A
C1792      C1793   1.376   1_565  A
C1792      H1804   1.083       .  S
C1793      H1805   1.081       .  S
C1794      C2004   1.489       .  S
C1795      C2254   1.484       .  S
C1796      C1906   1.498       .  S
C1797      C1920   1.498       .  S
N1808      C1812   1.361       .  A
N1808      C1809   1.363       .  A
N1808      C1892   1.440       .  S
C1809      C1810   1.385       .  A
C1809      C1909   1.495       .  S
C1810      C1811   1.371       .  A
C1810      H1813   1.082       .  S
C1811      C1812   1.380       .  A
C1811      H1814   1.082       .  S
C1812      C1878   1.486       .  S
O1815     Zr1827   2.443       .  S
O1815      C1817   1.289       .  A
O1816     Zr1853   2.407       .  S
O1816      C1817   1.283       .  A
C1817      C2035   1.472       .  S
O1818     Zr1830   2.456       .  S
O1818      C1820   1.290       .  A
O1819     Zr1854   2.390       .  S
O1819      C1820   1.279       .  A
C1820      C1976   1.457       .  S
O1821     Zr1830   2.437       .  S
O1821      C1823   1.287       .  A
O1822     Zr1853   2.450       .  S
O1822      C1823   1.292       .  A
C1823      C1990   1.485       .  S
O1824     Zr1827   2.432       .  S
O1824      C1826   1.286       .  A
O1825     Zr1854   2.444       .  S
O1825      C1826   1.290       .  A
C1826      C2021   1.484       .  S
Zr1827     O1828   2.435       .  S
Zr1827     O1829   2.434       .  S
Zr1827     O1833   2.365       .  S
Zr1827     O1834   2.363       .  S
Zr1827     O1857   2.379       .  S
Zr1827     O1859   2.361       .  S
O1828      H1871   0.990       .  S
O1829      H1870   0.990       .  S
O1829      H1874   0.990       .  S
Zr1830     O1831   2.438       .  S
Zr1830     O1832   2.435       .  S
Zr1830     O1834   2.369       .  S
Zr1830     O1833   2.379       .  S
Zr1830     O1858   2.377       .  S
Zr1830     O1860   2.371       .  S
O1831      H1872   0.990       .  S
O1831      H1875   0.990       .  S
O1832      H1865   0.990       .  S
O1833     Zr1853   2.382       .  S
O1834     Zr1854   2.383       .  S
O1834      H1861   0.965       .  S
O1835     Zr1847   2.452       .  S
O1835      C1837   1.291       .  A
O1836     Zr1854   2.401       .  S
O1836      C1837   1.282       .  A
C1837      C1934   1.474       .  S
O1838     Zr1850   2.431       .  S
O1838      C1840   1.286       .  A
O1839     Zr1853   2.423       .  S
O1839      C1840   1.287       .  A
C1840      C1895   1.473       .  S
O1841     Zr1850   2.438       .  S
O1841      C1843   1.287       .  A
O1842     Zr1854   2.441       .  S
O1842      C1843   1.289       .  A
C1843      C1881   1.476       .  S
O1844     Zr1847   2.439       .  S
O1844      C1846   1.288       .  A
O1845     Zr1853   2.459       .  S
O1845      C1846   1.293       .  A
C1846      C1948   1.492       .  S
Zr1847     O1848   2.436       .  S
Zr1847     O1849   2.434       .  S
Zr1847     O1855   2.358       .  S
Zr1847     O1856   2.375       .  S
Zr1847     O1859   2.369       .  S
Zr1847     O1857   2.372       .  S
O1848      H1868   0.990       .  S
O1848      H1873   0.990       .  S
O1849      H1869   0.990       .  S
Zr1850     O1851   2.435       .  S
Zr1850     O1852   2.435       .  S
Zr1850     O1856   2.376       .  S
Zr1850     O1855   2.366       .  S
Zr1850     O1860   2.375       .  S
Zr1850     O1858   2.372       .  S
O1851      H1867   0.990       .  S
O1852      H1866   0.990       .  S
O1852      H1876   0.990       .  S
Zr1853     O1856   2.381       .  S
Zr1853     O1858   2.391       .  S
Zr1853     O1859   2.384       .  S
Zr1854     O1855   2.378       .  S
Zr1854     O1857   2.386       .  S
Zr1854     O1860   2.384       .  S
O1855      H1863   0.965       .  S
O1858      H1862   0.967       .  S
O1859      H1864   0.966       .  S
C1877      C1878   1.403       .  A
C1877      C1882   1.400       .  A
C1877      H1884   1.084       .  S
C1878      C1879   1.418       .  A
C1879      C1880   1.405       .  A
C1879      N1886   1.431       .  S
C1880      C1881   1.402       .  A
C1880      H1885   1.084       .  S
C1881      C1882   1.408       .  A
C1882      N1883   1.433       .  S
N1883      H1887   1.046       .  S
N1883      H1888   1.046       .  S
N1886      H1889   1.045       .  S
N1886      H1890   1.041       .  S
C1891      C1892   1.402       .  A
C1891      C2188   1.405   1_554  A
C1891      H1898   1.083       .  S
C1892      C1893   1.408       .  A
C1893      C2186   1.403       .  A
C1893      N1900   1.431       .  S
C1894      C2185   1.401       .  A
C1894      C1895   1.401       .  A
C1894      H1899   1.084       .  S
C1895      C1896   1.410       .  A
C1896      C2183   1.401       .  A
C1896      N1897   1.432       .  S
N1897      H1901   1.045       .  S
N1897      H1902   1.046       .  S
N1900      H1903   1.046       .  S
N1900      H1904   1.046       .  S
C1905      C1906   1.402       .  A
C1905      C1910   1.402       .  A
C1905      H1912   1.084       .  S
C1906      C1907   1.420       .  A
C1907      C1908   1.409       .  A
C1907      N2206   1.438   1_554  S
C1908      C1909   1.407       .  A
C1908      H1913   1.083       .  S
C1909      C1910   1.414       .  A
C1910      N1911   1.438       .  S
N1911      H1915   1.046       .  S
N1911      H1916   1.046       .  S
N1914      C2199   1.438       .  S
N1914      H1917   1.044       .  S
N1914      H1918   1.045       .  S
C1919      C2212   1.402   1_554  A
C1919      C1924   1.399       .  A
C1919      H1926   1.083       .  S
C1920      C2211   1.404       .  A
C1920      C1921   1.416       .  A
C1921      C2214   1.410       .  A
C1921      N1928   1.437       .  S
C1922      C2213   1.410       .  A
C1922      C1923   1.400   1_556  A
C1922      H1927   1.084       .  S
C1923      C1924   1.408       .  A
C1924      N1925   1.431       .  S
N1925      H1929   1.045       .  S
N1925      H1930   1.046       .  S
N1928      H1931   1.045       .  S
N1928      H1932   1.046       .  S
C1933      C1934   1.399       .  A
C1933      C1938   1.395       .  A
C1933      H1940   1.084       .  S
C1934      C1935   1.418       .  A
C1935      C1936   1.406       .  A
C1935      N1942   1.437       .  S
C1936      C1937   1.397       .  A
C1936      H1941   1.084       .  S
C1937      C1938   1.407       .  A
C1938      N1939   1.431       .  S
N1939      H1943   1.046       .  S
N1939      H1944   1.046       .  S
N1942      H1945   1.043       .  S
N1942      H1946   1.046       .  S
C1947      C1948   1.408       .  A
C1947      C1952   1.413       .  A
C1947      H1954   1.081       .  S
C1948      C1949   1.414       .  A
C1949      C2242   1.405       .  A
C1949      N1956   1.438       .  S
C1950      C2241   1.407       .  A
C1950      C2243   1.405   1_556  A
C1950      H1955   1.083       .  S
C1951      N2059   1.451       .  S
C1951      C2242   1.405       .  A
C1951      C1952   1.411       .  A
C1952      N1953   1.431       .  S
N1953      H1957   1.046       .  S
N1953      H1958   1.046       .  S
N1956      H1959   1.046       .  S
N1956      H2252   1.046       .  S
H1960      N2248   1.046       .  S
C1961      C1962   1.399   1_554  A
C1961      C1966   1.399       .  A
C1961      H1968   1.084       .  S
C1962      C2255   1.408       .  A
C1962      C2087   1.485       .  S
C1963      C2254   1.409       .  A
C1963      C2256   1.410       .  A
C1963      N1970   1.436       .  S
C1964      C2255   1.409       .  A
C1964      C1965   1.405       .  A
C1964      H1969   1.084       .  S
C1965      C1966   1.413   1_556  A
C1966      N1967   1.431       .  S
N1967      H1971   1.046       .  S
N1967      H1972   1.046       .  S
N1970      H1973   1.046       .  S
N1970      H1974   1.046       .  S
C1975      C1976   1.396       .  A
C1975      C1980   1.398       .  A
C1975      H1982   1.084       .  S
C1976      C1977   1.408       .  A
C1977      C1978   1.393       .  A
C1977      N1984   1.433       .  S
C1978      C1979   1.405       .  A
C1978      H1983   1.084       .  S
C1979      C1980   1.418       .  A
C1980      N1981   1.428       .  S
N1981      H1985   1.041       .  S
N1981      H1986   1.043       .  S
N1984      H1987   1.044       .  S
N1984      H1988   1.045       .  S
C1989      C1990   1.405       .  A
C1989      C1994   1.406       .  A
C1989      H1996   1.084       .  S
C1990      C1991   1.408       .  A
C1991      C2284   1.405       .  A
C1991      N1998   1.439       .  S
C1992      C2283   1.409       .  A
C1992      C1993   1.414       .  A
C1992      H1997   1.083       .  S
C1993      C2286   1.420       .  A
C1994      C2285   1.420       .  A
C1994      N1995   1.430       .  S
N1995      H1999   1.040       .  S
N1995      H2292   1.044       .  S
N1998      H2001   1.045       .  S
N1998      H2002   1.046       .  S
H2000      N2287   1.043   1_554  S
C2003      C2004   1.403       .  A
C2003      C2008   1.403       .  A
C2003      H2010   1.084       .  S
C2004      C2297   1.419       .  A
C2005      C2296   1.416       .  A
C2005      C2006   1.398       .  A
C2005      N2012   1.433       .  S
C2006      C2299   1.398       .  A
C2006      H2011   1.084       .  S
C2007      C2298   1.398       .  A
C2007      C2008   1.409       .  A
C2007      C2046   1.469       .  S
C2008      N2009   1.438       .  S
N2009      H2013   1.046       .  S
N2009      H2014   1.046       .  S
N2012      H2015   1.045       .  S
N2012      H2016   1.043       .  S
C2017      C2018   1.402       .  A
C2017      C2022   1.401       .  A
C2017      H2024   1.083       .  S
C2018      C2019   1.410       .  A
C2019      C2020   1.408       .  A
C2019      N2026   1.431       .  S
C2020      C2021   1.407       .  A
C2020      H2025   1.082       .  S
C2021      C2022   1.414       .  A
C2022      N2023   1.438       .  S
N2023      H2027   1.046       .  S
N2023      H2028   1.046       .  S
N2026      H2321   1.045       .  S
N2026      H2030   1.046       .  S
H2029      N2318   1.045       .  S
C2031      C2032   1.401       .  A
C2031      C2036   1.397       .  A
C2031      H2038   1.085       .  S
C2032      C2033   1.405       .  A
C2033      C2034   1.397       .  A
C2033      N2040   1.432       .  S
C2034      C2035   1.407       .  A
C2034      H2039   1.082       .  S
C2035      C2036   1.416       .  A
C2036      N2037   1.440       .  S
N2037      H2041   1.046       .  S
N2037      H2042   1.042       .  S
N2040      H2043   1.045       .  S
N2040      H2044   1.045       .  S
N2045      C2046   1.357       .  A
N2045      C2310   1.448       .  S
C2047      C2048   1.369       .  A
C2047      H2050   1.082       .  S
C2048      C2049   1.380       .  A
C2048      H2051   1.082       .  S
C2049      C2324   1.464       .  S
N2052      C2056   1.363       .  A
N2052      C2053   1.368       .  A
N2052      C2285   1.458       .  S
C2053      C2054   1.384       .  A
C2053      C2257   1.477       .  S
C2054      C2055   1.361       .  A
C2054      H2057   1.083       .  S
C2055      C2056   1.378       .  A
C2055      H2058   1.082       .  S
C2056      C2271   1.483       .  S
N2059      C2063   1.358       .  A
N2059      C2060   1.361       .  A
C2060      C2061   1.383       .  A
C2060      C2215   1.473       .  S
C2061      C2062   1.364       .  A
C2061      H2064   1.083       .  S
C2062      C2063   1.378       .  A
C2062      H2065   1.082       .  S
C2063      C2229   1.467       .  S
N2066      C2071   1.351       .  A
N2066      H2098   1.041   1_556  S
N2067      C2074   1.352   1_556  A
N2068      C2072   1.355       .  A
N2068      H2099   1.040   1_556  S
N2069      C2076   1.351       .  A
C2070      C2078   1.387       .  A
C2070      C2086   1.411   1_455  A
C2071      C2087   1.409       .  A
C2071      C2079   1.386       .  A
C2072      C2080   1.389       .  A
C2073      C2088   1.414       .  A
C2073      C2081   1.384       .  A
C2074      C2086   1.410   1_554  A
C2074      C2082   1.384       .  A
C2075      C2089   1.417   1_554  A
C2075      C2083   1.388       .  A
C2076      C2087   1.412       .  A
C2077      C2085   1.388   1_545  A
C2078      H2090   1.082       .  S
C2079      H2091   1.082       .  S
C2080      H2092   1.082       .  S
C2081      H2093   1.082       .  S
C2082      H2094   1.082       .  S
C2083      H2095   1.082       .  S
C2084      C2085   1.375       .  A
C2084      H2096   1.083       .  S
C2085      H2097   1.081   1_565  S
C2086      C2296   1.487   1_556  S
C2088      C2198   1.499       .  S
C2089      C2212   1.499       .  S
N2100      C2104   1.364       .  A
N2100      C2101   1.365       .  A
N2100      C2184   1.441       .  S
C2101      C2102   1.385       .  A
C2101      C2201   1.499       .  S
C2102      C2103   1.371       .  A
C2102      H2105   1.082       .  S
C2103      C2104   1.380       .  A
C2103      H2106   1.082       .  S
C2104      C2170   1.491       .  S
O2107     Zr2119   2.454       .  S
O2107      C2109   1.291       .  A
O2108     Zr2145   2.398       .  S
O2108      C2109   1.282       .  A
C2109      C2327   1.474       .  S
O2110     Zr2122   2.457       .  S
O2110      C2112   1.290       .  A
O2111     Zr2146   2.392       .  S
O2111      C2112   1.279       .  A
C2112      C2268   1.458       .  S
O2113     Zr2122   2.436       .  S
O2113      C2115   1.287       .  A
O2114     Zr2145   2.454       .  S
O2114      C2115   1.292       .  A
C2115      C2282   1.486       .  S
O2116     Zr2119   2.450       .  S
O2116      C2118   1.290       .  A
O2117     Zr2146   2.437       .  S
O2117      C2118   1.288       .  A
C2118      C2313   1.487       .  S
Zr2119     O2120   2.435       .  S
Zr2119     O2121   2.436       .  S
Zr2119     O2125   2.368       .  S
Zr2119     O2126   2.364       .  S
Zr2119     O2149   2.378       .  S
Zr2119     O2151   2.366       .  S
O2120      H2163   0.990       .  S
O2121      H2162   0.990       .  S
O2121      H2166   0.990       .  S
Zr2122     O2123   2.436       .  S
Zr2122     O2124   2.435       .  S
Zr2122     O2126   2.366       .  S
Zr2122     O2125   2.377       .  S
Zr2122     O2150   2.381       .  S
Zr2122     O2152   2.372       .  S
O2123      H2164   0.990       .  S
O2123      H2167   0.990       .  S
O2124      H2157   0.990       .  S
O2125     Zr2145   2.384       .  S
O2126     Zr2146   2.383       .  S
O2126      H2153   0.963       .  S
O2127     Zr2139   2.448       .  S
O2127      C2129   1.290       .  A
O2128     Zr2146   2.398       .  S
O2128      C2129   1.281       .  A
C2129      C2226   1.473       .  S
O2130     Zr2142   2.436       .  S
O2130      C2132   1.287       .  A
O2131     Zr2145   2.425       .  S
O2131      C2132   1.287       .  A
C2132      C2187   1.474       .  S
O2133     Zr2142   2.441       .  S
O2133      C2135   1.288       .  A
O2134     Zr2146   2.446       .  S
O2134      C2135   1.289       .  A
C2135      C2173   1.481       .  S
O2136     Zr2139   2.439       .  S
O2136      C2138   1.288       .  A
O2137     Zr2145   2.454       .  S
O2137      C2138   1.292       .  A
C2138      C2240   1.488       .  S
Zr2139     O2140   2.435       .  S
Zr2139     O2141   2.435       .  S
Zr2139     O2147   2.363       .  S
Zr2139     O2148   2.376       .  S
Zr2139     O2151   2.369       .  S
Zr2139     O2149   2.372       .  S
O2140      H2160   0.990       .  S
O2140      H2165   0.990       .  S
O2141      H2161   0.990       .  S
Zr2142     O2143   2.435       .  S
Zr2142     O2144   2.433       .  S
Zr2142     O2148   2.374       .  S
Zr2142     O2147   2.366       .  S
Zr2142     O2152   2.375       .  S
Zr2142     O2150   2.373       .  S
O2143      H2159   0.990       .  S
O2144      H2158   0.990       .  S
O2144      H2168   0.990       .  S
Zr2145     O2148   2.381       .  S
Zr2145     O2150   2.392       .  S
Zr2145     O2151   2.389       .  S
Zr2146     O2147   2.379       .  S
Zr2146     O2149   2.387       .  S
Zr2146     O2152   2.382       .  S
O2147      H2155   0.965       .  S
O2150      H2154   0.967       .  S
O2151      H2156   0.966       .  S
C2169      C2170   1.403       .  A
C2169      C2174   1.400       .  A
C2169      H2176   1.084       .  S
C2170      C2171   1.419       .  A
C2171      C2172   1.409       .  A
C2171      N2178   1.431       .  S
C2172      C2173   1.404       .  A
C2172      H2177   1.084       .  S
C2173      C2174   1.407       .  A
C2174      N2175   1.433       .  S
N2175      H2179   1.046       .  S
N2175      H2180   1.046       .  S
N2178      H2181   1.045       .  S
N2178      H2182   1.042       .  S
C2183      C2184   1.403       .  A
C2183      H2190   1.083       .  S
C2184      C2185   1.410       .  A
C2185      N2192   1.431       .  S
C2186      C2187   1.403   1_554  A
C2186      H2191   1.084       .  S
C2187      C2188   1.413       .  A
C2188      N2189   1.438       .  S
N2189      H2193   1.046       .  S
N2189      H2194   1.045       .  S
N2192      H2195   1.046       .  S
N2192      H2196   1.046       .  S
C2197      C2198   1.402       .  A
C2197      C2202   1.402       .  A
C2197      H2204   1.084       .  S
C2198      C2199   1.420       .  A
C2199      C2200   1.410       .  A
C2200      C2201   1.408       .  A
C2200      H2205   1.082       .  S
C2201      C2202   1.415       .  A
C2202      N2203   1.438       .  S
N2203      H2207   1.046       .  S
N2203      H2208   1.045       .  S
N2206      H2209   1.044       .  S
N2206      H2210   1.045       .  S
C2211      C2216   1.398       .  A
C2211      H2218   1.083       .  S
C2212      C2213   1.417       .  A
C2213      N2220   1.437       .  S
C2214      C2215   1.401       .  A
C2214      H2219   1.083       .  S
C2215      C2216   1.407       .  A
C2216      N2217   1.432       .  S
N2217      H2221   1.045       .  S
N2217      H2222   1.046       .  S
N2220      H2223   1.045       .  S
N2220      H2224   1.046       .  S
C2225      C2226   1.400       .  A
C2225      C2230   1.395       .  A
C2225      H2232   1.084       .  S
C2226      C2227   1.419       .  A
C2227      C2228   1.405       .  A
C2227      N2234   1.437       .  S
C2228      C2229   1.397       .  A
C2228      H2233   1.084       .  S
C2229      C2230   1.407       .  A
C2230      N2231   1.432       .  S
N2231      H2235   1.046       .  S
N2231      H2236   1.046       .  S
N2234      H2237   1.044       .  S
N2234      H2238   1.046       .  S
C2239      C2240   1.406       .  A
C2239      C2244   1.411   1_556  A
C2239      H2246   1.083       .  S
C2240      C2241   1.413       .  A
C2241      N2248   1.438       .  S
C2242      H2247   1.083       .  S
C2243      C2244   1.409       .  A
C2244      N2245   1.431       .  S
N2245      H2249   1.046       .  S
N2245      H2250   1.046       .  S
N2248      H2251   1.046       .  S
C2253      C2254   1.397       .  A
C2253      C2258   1.397       .  A
C2253      H2260   1.084       .  S
C2255      N2262   1.436       .  S
C2256      C2257   1.405       .  A
C2256      H2261   1.084       .  S
C2257      C2258   1.412       .  A
C2258      N2259   1.430       .  S
N2259      H2263   1.045       .  S
N2259      H2264   1.046       .  S
N2262      H2265   1.046       .  S
N2262      H2266   1.046       .  S
C2267      C2268   1.397       .  A
C2267      C2272   1.397       .  A
C2267      H2274   1.084       .  S
C2268      C2269   1.414       .  A
C2269      C2270   1.395       .  A
C2269      N2276   1.439       .  S
C2270      C2271   1.403       .  A
C2270      H2275   1.084       .  S
C2271      C2272   1.416       .  A
C2272      N2273   1.429       .  S
N2273      H2277   1.042       .  S
N2273      H2278   1.042       .  S
N2276      H2279   1.041       .  S
N2276      H2280   1.046       .  S
C2281      C2282   1.404       .  A
C2281      C2286   1.405       .  A
C2281      H2288   1.084       .  S
C2282      C2283   1.409       .  A
C2283      N2290   1.438       .  S
C2284      C2285   1.412       .  A
C2284      H2289   1.082       .  S
C2286      N2287   1.428       .  S
N2287      H2291   1.040       .  S
N2290      H2293   1.045       .  S
N2290      H2294   1.046       .  S
C2295      C2296   1.402   1_556  A
C2295      C2300   1.403       .  A
C2295      H2302   1.084       .  S
C2297      C2298   1.401       .  A
C2297      N2304   1.438       .  S
C2298      H2303   1.084       .  S
C2299      C2300   1.410   1_554  A
C2300      N2301   1.438       .  S
N2301      H2305   1.046       .  S
N2301      H2306   1.046       .  S
N2304      H2307   1.044       .  S
N2304      H2308   1.045       .  S
C2309      C2310   1.404       .  A
C2309      C2314   1.405       .  A
C2309      H2316   1.083       .  S
C2310      C2311   1.411       .  A
C2311      C2312   1.410       .  A
C2311      N2318   1.431       .  S
C2312      C2313   1.407       .  A
C2312      H2317   1.083       .  S
C2313      C2314   1.412       .  A
C2314      N2315   1.438       .  S
N2315      H2319   1.046       .  S
N2315      H2320   1.046       .  S
N2318      H2322   1.046       .  S
C2323      C2324   1.400       .  A
C2323      C2328   1.399       .  A
C2323      H2330   1.084       .  S
C2324      C2325   1.406       .  A
C2325      C2326   1.398       .  A
C2325      N2332   1.432   1_556  S
C2326      C2327   1.409       .  A
C2326      H2331   1.083       .  S
C2327      C2328   1.410       .  A
C2328      N2329   1.438       .  S
N2329      H2333   1.046       .  S
N2329      H2334   1.045       .  S
N2332      H2335   1.045       .  S
N2332      H2336   1.045       .  S
