geometry optimzed in LAMMPS
_audit_creation_date              2020-11-30 
_audit_creation_method            'lammps2cif' 
_symmetry_space_group_name_H-M    'P1' 
_symmetry_Int_Tables_number       1 
_symmetry_cell_setting            triclinic 
loop_ 
_symmetry_equiv_pos_as_xyz 
  x,y,z 
_cell_length_a                    98.2608457 
_cell_length_b                    97.91245992657889 
_cell_length_c                    98.10137923463333 
_cell_angle_alpha                 89.87811011333226 
_cell_angle_beta                  90.15375320959437 
_cell_angle_gamma                 90.23518421822223 
loop_ 
_atom_site_label 
_atom_site_type_symbol 
_atom_site_fract_x 
_atom_site_fract_y 
_atom_site_fract_z 
_atom_site_charge 
N1          N  0.94691055  0.65080782  0.61407348    -0.27500
N2          N  0.94626482  0.63958926  0.60662151    -0.35400
C3          C  0.93824578  0.63036795  0.61281559     0.00800
C4          C  0.93351858  0.63589944  0.62485395     0.06800
C5          C  0.93932263  0.64887928  0.62539495    -0.06300
H6          H  0.93565502  0.62050985  0.60855577     0.07500
H7          H  0.93751212  0.65661263  0.63303037     0.08700
Cu8        Cu  0.95450183  0.63754297  0.58741747     0.44200
Cu9        Cu  0.95692016  0.66851684  0.60716790     0.42000
Cu10       Cu  0.96671146  0.66714375  0.57067044     0.43900
N11         N  0.95959425  0.63773173  0.56703877    -0.34900
N12         N  0.96369728  0.64879801  0.56052558    -0.29200
C13         C  0.96499269  0.64586261  0.54717780    -0.05300
C14         C  0.96153709  0.63222071  0.54524280     0.06900
C15         C  0.95819110  0.62745588  0.55812582     0.00700
H16         H  0.96804228  0.65317364  0.53948008     0.08400
H17         H  0.95441604  0.61742256  0.56082491     0.07500
N18         N  0.97019247  0.68365678  0.58348863    -0.36400
N19         N  0.96694469  0.68428290  0.59655769    -0.28600
C20         C  0.97135316  0.69635745  0.60155168    -0.03800
C21         C  0.97769086  0.70368459  0.59114786     0.04800
C22         C  0.97667491  0.69520817  0.57987767     0.02900
H23         H  0.97009881  0.69948164  0.61203359     0.08000
H24         H  0.98057447  0.69707631  0.56975370     0.06800
N25         N  0.10826612  0.55429773  0.35674879    -0.27500
N26         N  0.10114068  0.55952428  0.36685897    -0.35400
C27         C  0.10937922  0.56696232  0.37487049     0.00800
C28         C  0.12242892  0.56652124  0.36961465     0.06800
C29         C  0.12132592  0.55841531  0.35803818    -0.06300
H30         H  0.10596088  0.57254858  0.38371104     0.07500
H31         H  0.12938409  0.55569061  0.35107811     0.08700
Cu32       Cu  0.08046408  0.55682795  0.36942559     0.44200
Cu33       Cu  0.09937301  0.54197675  0.34183428     0.42000
Cu34       Cu  0.06251614  0.53551667  0.34595855     0.43900
N35         N  0.05989426  0.55280208  0.37100805    -0.34900
N36         N  0.05323267  0.54455823  0.36267411    -0.29200
C37         C  0.04015894  0.54374388  0.36671042    -0.05300
C38         C  0.03853039  0.55204372  0.37803060     0.06900
C39         C  0.05127550  0.55761143  0.38043281     0.00700
H40         H  0.03238402  0.53775699  0.36163869     0.08400
H41         H  0.05415972  0.56447935  0.38857794     0.07500
N42         N  0.07409168  0.52876409  0.32958347    -0.36400
N43         N  0.08734888  0.53081424  0.32823727    -0.28600
C44         C  0.09146557  0.52515934  0.31646202    -0.03800
C45         C  0.08027632  0.51940527  0.30998759     0.04800
C46         C  0.06944360  0.52191866  0.31862181     0.02900
H47         H  0.10179901  0.52558539  0.31270023     0.08000
H48         H  0.05892444  0.51899411  0.31707678     0.06800
N49         N  0.85457818  0.40556045  0.45637688    -0.27500
N50         N  0.86432826  0.41380683  0.45209529    -0.35400
C51         C  0.87314230  0.40684661  0.44442738     0.00800
C52         C  0.86884694  0.39339720  0.44363883     0.06800
C53         C  0.85699496  0.39293276  0.45142394    -0.06300
H54         H  0.88200259  0.41141708  0.43973344     0.07500
H55         H  0.85043426  0.38418891  0.45306763     0.08700
Cu56       Cu  0.86542818  0.43426729  0.45633986     0.44200
Cu57       Cu  0.83855405  0.41301014  0.46826429     0.42000
Cu58       Cu  0.84157822  0.45018817  0.47774503     0.43900
N59         N  0.86693658  0.45444709  0.46164126    -0.34900
N60         N  0.85852418  0.46057677  0.47009368    -0.29200
C61         C  0.86266482  0.47365004  0.47167834    -0.05300
C62         C  0.87410172  0.47573168  0.46360383     0.06900
C63         C  0.87646307  0.46331273  0.45744408     0.00700
H64         H  0.85755293  0.48114194  0.47790740     0.08400
H65         H  0.88461630  0.46081859  0.45050086     0.07500
N66         N  0.82494000  0.43748470  0.48192558    -0.36400
N67         N  0.82387886  0.42435356  0.47878793    -0.28600
C68         C  0.81155465  0.41977911  0.48278979    -0.03800
C69         C  0.80443778  0.43051561  0.48857135     0.04800
C70         C  0.81329867  0.44154073  0.48784009     0.02900
H71         H  0.80789821  0.40946492  0.48121034     0.08000
H72         H  0.81143620  0.45184245  0.49131551     0.06800
C73         C  0.94957710  0.57447627  0.46110289     0.80000
N74         N  0.93940090  0.56504957  0.46107284    -0.78300
C75         C  0.93877306  0.55520299  0.45136963     0.82400
N76         N  0.94839495  0.55495483  0.44143434    -0.78300
C77         C  0.95861585  0.56436698  0.44125081     0.82500
N78         N  0.95916304  0.57405706  0.45115675    -0.80000
N79         N  0.66638576  0.60225550  0.96774905    -0.27500
N80         N  0.65356668  0.59826455  0.96873204    -0.35400
C81         C  0.64552039  0.60750226  0.96265939     0.00800
C82         C  0.65363920  0.61781387  0.95746894     0.06800
C83         C  0.66684958  0.61414188  0.96083083    -0.06300
H84         H  0.63459668  0.60647773  0.96162765     0.07500
H85         H  0.67609923  0.61965904  0.95840920     0.08700
Cu86       Cu  0.64753211  0.57989074  0.97704901     0.44200
Cu87       Cu  0.68233124  0.59109322  0.97604849     0.42000
Cu88       Cu  0.67244366  0.55879558  0.99301344     0.43900
N89         N  0.64346848  0.56027963  0.98355665    -0.34900
N90         N  0.65247064  0.55239545  0.98971720    -0.29200
C91         C  0.64681022  0.54000735  0.99185896    -0.05300
C92         C  0.63370435  0.54012969  0.98655794     0.06900
C93         C  0.63196850  0.55316160  0.98141707     0.00700
H94         H  0.65208030  0.53135944  0.99623759     0.08400
H95         H  0.62311370  0.55710604  0.97616982     0.07500
N96         N  0.69196131  0.56719407  0.99319604    -0.36400
N97         N  0.69561016  0.57851718  0.98674644    -0.28600
C98         C  0.70896490  0.58078638  0.98888616    -0.03800
C99         C  0.71395357  0.57048740  0.99717331     0.04800
C100        C  0.70287622  0.56207657  0.99970677     0.02900
H101        H  0.71451448  0.58954368  0.98505056     0.08000
H102        H  0.70273687  0.55287523  0.00582467     0.06800
N103        N  0.56715145  0.33573439  0.11868647    -0.27500
N104        N  0.56538956  0.34867839  0.11536263    -0.35400
C105        C  0.57096022  0.35668004  0.12495631     0.00800
C106        C  0.57670993  0.34842269  0.13481155     0.06800
C107        C  0.57419150  0.33514662  0.13049416    -0.06300
H108        H  0.57130428  0.36771834  0.12447214     0.07500
H109        H  0.57717142  0.32580262  0.13557684     0.08700
Cu110      Cu  0.55699176  0.35493853  0.09722074     0.44200
Cu111      Cu  0.55895765  0.32013384  0.10679879     0.42000
Cu112      Cu  0.54153202  0.33088187  0.07469968     0.43900
N113        N  0.55133385  0.35973565  0.07762045    -0.34900
N114        N  0.54541417  0.35109781  0.06913088    -0.29200
C115        C  0.54320438  0.35756101  0.05717349    -0.05300
C116        C  0.54818780  0.37081818  0.05825483     0.06900
C117        C  0.55326509  0.37176562  0.07135581     0.00700
H118        H  0.53859655  0.35289303  0.04829588     0.08400
H119        H  0.55794153  0.38059382  0.07607898     0.07500
N120        N  0.53998233  0.31157097  0.08364919    -0.36400
N121        N  0.54656155  0.30768737  0.09479873    -0.28600
C122        C  0.54310034  0.29471467  0.09773952    -0.03800
C123        C  0.53382999  0.29016738  0.08809142     0.04800
C124        C  0.53209486  0.30115473  0.07932247     0.02900
H125        H  0.54675613  0.28916893  0.10655756     0.08000
H126        H  0.52558406  0.30157960  0.07042502     0.06800
N127        N  0.40711073  0.44594190  0.86311647    -0.27500
N128        N  0.41125282  0.44612319  0.87592922    -0.35400
C129        C  0.40247762  0.43898098  0.88361766     0.00800
C130        C  0.39235547  0.43387151  0.87523737     0.06800
C131        C  0.39563062  0.43842672  0.86225626    -0.06300
H132        H  0.40380389  0.43702184  0.89439713     0.07500
H133        H  0.39017446  0.43634008  0.85289052     0.08700
Cu134      Cu  0.42961504  0.45423535  0.88209896     0.44200
Cu135      Cu  0.41761787  0.45611943  0.84783561     0.42000
Cu136      Cu  0.45064264  0.47140366  0.85752541     0.43900
N137        N  0.44954686  0.45969575  0.88580939    -0.34900
N138        N  0.45739350  0.46617847  0.87697820    -0.29200
C139        C  0.46982545  0.46789989  0.88257550    -0.05300
C140        C  0.46976965  0.46201054  0.89545752     0.06900
C141        C  0.45673771  0.45692351  0.89711538     0.00700
H142        H  0.47833696  0.47277001  0.87752516     0.08400
H143        H  0.45270963  0.45163397  0.90592764     0.07500
N144        N  0.44104841  0.47426145  0.83877932    -0.36400
N145        N  0.42919360  0.46875743  0.83538343    -0.28600
C146        C  0.42583015  0.47284479  0.82273742    -0.03800
C147        C  0.43606406  0.48126942  0.81783194     0.04800
C148        C  0.44556341  0.48190702  0.82829130     0.02900
H149        H  0.41663608  0.46975506  0.81747370     0.08000
H150        H  0.45499961  0.48763815  0.82837388     0.06800
C151        C  0.56122930  0.46688335  0.98022535     0.80000
N152        N  0.56011432  0.45698959  0.98991189    -0.78300
C153        C  0.54960478  0.44791217  0.98956274     0.82400
N154        N  0.54016412  0.44882165  0.97946079    -0.78300
C155        C  0.54115010  0.45866834  0.96973304     0.82500
N156        N  0.55172268  0.46763719  0.97015995    -0.80000
N157        N  0.91606565  0.30672478  0.36703362    -0.27500
N158        N  0.90686585  0.31230197  0.35894389    -0.35400
C159        C  0.90031731  0.32217718  0.36565840     0.00800
C160        C  0.90553374  0.32296987  0.37872789     0.06800
C161        C  0.91549983  0.31293383  0.37930947    -0.06300
H162        H  0.89224121  0.32827539  0.36130078     0.07500
H163        H  0.92207624  0.31059312  0.38785394     0.08700
Cu164      Cu  0.90310190  0.30634745  0.33918195     0.44200
Cu165      Cu  0.92907776  0.29153313  0.35988082     0.42000
Cu166      Cu  0.92178154  0.27946283  0.32433504     0.43900
N167        N  0.89846149  0.29854605  0.32026098    -0.34900
N168        N  0.90500046  0.28824381  0.31466803    -0.29200
C169        C  0.89902930  0.28525817  0.30262349    -0.05300
C170        C  0.88827591  0.29424800  0.30057162     0.06900
C171        C  0.88828819  0.30247884  0.31202386     0.00700
H172        H  0.90232971  0.27723231  0.29584736     0.08400
H173        H  0.88121709  0.31055704  0.31442068     0.07500
N174        N  0.93865433  0.27395303  0.33609533    -0.36400
N175        N  0.94119817  0.27812344  0.34868935    -0.28600
C176        C  0.95322456  0.27295557  0.35275489    -0.03800
C177        C  0.95860810  0.26519271  0.34225529     0.04800
C178        C  0.94901918  0.26608481  0.33188268     0.02900
H179        H  0.95786602  0.27509146  0.36252794     0.08000
H180        H  0.94954027  0.26149977  0.32188442     0.06800
N181        N  0.80665527  0.14725680  0.11348566    -0.27500
N182        N  0.81189668  0.15507732  0.12312578    -0.35400
C183        C  0.82119983  0.14798947  0.13017396     0.00800
C184        C  0.82189020  0.13498610  0.12479877     0.06800
C185        C  0.81245598  0.13480618  0.11424405    -0.06300
H186        H  0.82727006  0.15213680  0.13841341     0.07500
H187        H  0.81053082  0.12653822  0.10718870     0.08700
Cu188      Cu  0.80682363  0.17524400  0.12596847     0.44200
Cu189      Cu  0.79317339  0.15513352  0.09912057     0.42000
Cu190      Cu  0.78400782  0.19191935  0.10314136     0.43900
N191        N  0.80015365  0.19492650  0.12885387    -0.34900
N192        N  0.79133683  0.20117856  0.12083176    -0.29200
C193        C  0.78882059  0.21368814  0.12598724    -0.05300
C194        C  0.79663111  0.21534542  0.13770450     0.06900
C195        C  0.80363593  0.20321522  0.13915252     0.00700
H196        H  0.78205551  0.22109588  0.12141385     0.08400
H197        H  0.81063300  0.20048499  0.14723126     0.07500
N198        N  0.77916597  0.17980787  0.08632480    -0.36400
N199        N  0.78200657  0.16663859  0.08518443    -0.28600
C200        C  0.77721340  0.16207769  0.07317277    -0.03800
C201        C  0.77121274  0.17285859  0.06633074     0.04800
C202        C  0.77268853  0.18395463  0.07493663     0.02900
H203        H  0.77836860  0.15172768  0.06952145     0.08000
H204        H  0.76921580  0.19427204  0.07311550     0.06800
N205        N  0.65447047  0.40288339  0.21534749    -0.27500
N206        N  0.66152823  0.39163646  0.21326721    -0.35400
C207        C  0.65394580  0.38272892  0.20613877     0.00800
C208        C  0.64147434  0.38864290  0.20342696     0.06800
C209        C  0.64217215  0.40149501  0.20936399    -0.06300
H210        H  0.65746180  0.37283608  0.20278332     0.07500
H211        H  0.63434053  0.40923119  0.20936497     0.08700
Cu212      Cu  0.68147609  0.38919367  0.21929233     0.44200
Cu213      Cu  0.66248169  0.41920089  0.22637508     0.42000
Cu214      Cu  0.69818018  0.41517626  0.23876100     0.43900
N215        N  0.70170031  0.38820826  0.22480852    -0.34900
N216        N  0.70800922  0.39738718  0.23242338    -0.29200
C217        C  0.72111031  0.39353785  0.23401152    -0.05300
C218        C  0.72306090  0.38152332  0.22677550     0.06900
C219        C  0.71053342  0.37850042  0.22111809     0.00700
H220        H  0.72873766  0.39929062  0.23955441     0.08400
H221        H  0.70800141  0.36984910  0.21473889     0.07500
N222        N  0.68599945  0.43237415  0.24187187    -0.36400
N223        N  0.67324332  0.43367671  0.23766188    -0.28600
C224        C  0.66865578  0.44609490  0.24124604    -0.03800
C225        C  0.67902060  0.45305876  0.24786296     0.04800
C226        C  0.68985401  0.44403183  0.24806389     0.02900
H227        H  0.65863956  0.44993750  0.23877415     0.08000
H228        H  0.69986262  0.44581925  0.25233500     0.06800
C229        C  0.79745632  0.31159024  0.21735394     0.80000
N230        N  0.79636054  0.30191968  0.20746416    -0.78300
C231        C  0.80501847  0.29111939  0.20715399     0.82400
N232        N  0.81494957  0.29012440  0.21679934    -0.78300
C233        C  0.81619249  0.29970812  0.22673712     0.82500
N234        N  0.80737415  0.31036752  0.22696124    -0.80000
N235        N  0.60326958  0.93658962  0.67029847    -0.27500
N236        N  0.59574886  0.93114116  0.66055510    -0.35400
C237        C  0.60361430  0.92342899  0.65253248     0.00800
C238        C  0.61685156  0.92390440  0.65745372     0.06800
C239        C  0.61622959  0.93243226  0.66875250    -0.06300
H240        H  0.59979716  0.91768295  0.64392719     0.07500
H241        H  0.62443205  0.93499380  0.67567415     0.08700
Cu242      Cu  0.57499113  0.93367898  0.65911081     0.44200
Cu243      Cu  0.59472662  0.94841534  0.68557666     0.42000
Cu244      Cu  0.55737411  0.95364331  0.68426223     0.43900
N245        N  0.55442117  0.93758288  0.65834411    -0.34900
N246        N  0.54782910  0.94527826  0.66716515    -0.29200
C247        C  0.53477052  0.94638205  0.66304377    -0.05300
C248        C  0.53313182  0.93885541  0.65115811     0.06900
C249        C  0.54581610  0.93343837  0.64854899     0.00700
H250        H  0.52707097  0.95220698  0.66829806     0.08400
H251        H  0.54874476  0.92730825  0.63988482     0.07500
N252        N  0.57000965  0.95975646  0.70029520    -0.36400
N253        N  0.58338157  0.95813246  0.70051407    -0.28600
C254        C  0.58832645  0.96295292  0.71235541    -0.03800
C255        C  0.57760872  0.96775590  0.72008912     0.04800
C256        C  0.56613644  0.96554763  0.71210365     0.02900
H257        H  0.59893578  0.96252025  0.71529332     0.08000
H258        H  0.55571040  0.96790500  0.71468973     0.06800
N259        N  0.35604460  0.09389924  0.57107995    -0.27500
N260        N  0.36598021  0.08644071  0.57623539    -0.35400
C261        C  0.37445102  0.09451967  0.58337777     0.00800
C262        C  0.36961584  0.10778960  0.58281613     0.06800
C263        C  0.35790108  0.10697259  0.57489000    -0.06300
H264        H  0.38318619  0.09083103  0.58899045     0.07500
H265        H  0.35104700  0.11518787  0.57227298     0.08700
Cu266      Cu  0.36713612  0.06550931  0.57417376     0.44200
Cu267      Cu  0.33995294  0.08560661  0.55997308     0.42000
Cu268      Cu  0.33994395  0.04851158  0.55611145     0.43900
N269        N  0.36672351  0.04478971  0.57042988    -0.34900
N270        N  0.35709843  0.03854326  0.56333300    -0.29200
C271        C  0.36040699  0.02528427  0.56198441    -0.05300
C272        C  0.37257074  0.02313368  0.56878069     0.06900
C273        C  0.37625757  0.03568763  0.57402562     0.00700
H274        H  0.35437158  0.01777905  0.55657013     0.08400
H275        H  0.38540690  0.03812506  0.57969152     0.07500
N276        N  0.32403022  0.06103202  0.55008928    -0.36400
N277        N  0.32418813  0.07450551  0.55103811    -0.28600
C278        C  0.31239782  0.07941888  0.54606273    -0.03800
C279        C  0.30435894  0.06850975  0.54194108     0.04800
C280        C  0.31208896  0.05702204  0.54466813     0.02900
H281        H  0.30974366  0.09012847  0.54581767     0.08000
H282        H  0.30930842  0.04649602  0.54276094     0.06800
N283        N  0.44679158  0.84335941  0.41153878    -0.27500
N284        N  0.44153123  0.85323668  0.41900299    -0.35400
C285        C  0.43422217  0.86154287  0.41095580     0.00800
C286        C  0.43476724  0.85665793  0.39775296     0.06800
C287        C  0.44280971  0.84507023  0.39850288    -0.06300
H288        H  0.42851663  0.87022312  0.41459398     0.07500
H289        H  0.44547126  0.83829735  0.39023895     0.08700
Cu290      Cu  0.44384015  0.85505231  0.43985221     0.44200
Cu291      Cu  0.45884679  0.82789797  0.41958993     0.42000
Cu292      Cu  0.46719566  0.83221210  0.45557792     0.43900
N293        N  0.44885790  0.85606101  0.46027567    -0.34900
N294        N  0.45799155  0.84799895  0.46597455    -0.29200
C295        C  0.45964897  0.85161020  0.47908872    -0.05300
C296        C  0.45100818  0.86240140  0.48179880     0.06900
C297        C  0.44430166  0.86492911  0.46962592     0.00700
H298        H  0.46652771  0.84664252  0.48613762     0.08400
H299        H  0.43694002  0.87286622  0.46758724     0.07500
N300        N  0.47328980  0.81578360  0.44391540    -0.36400
N301        N  0.47024274  0.81404607  0.43090715    -0.28600
C302        C  0.47527214  0.80197863  0.42678313    -0.03800
C303        C  0.48178539  0.79577776  0.43775378     0.04800
C304        C  0.48028640  0.80492339  0.44841287     0.02900
H305        H  0.47402449  0.79797907  0.41659202     0.08000
H306        H  0.48379858  0.80379409  0.45880023     0.06800
C307        C  0.43575530  0.94272829  0.57434307     0.80000
N308        N  0.43560772  0.93295632  0.56457651    -0.78300
C309        C  0.44525559  0.92307813  0.56431977     0.82400
N310        N  0.45515093  0.92299474  0.57404438    -0.78300
C311        C  0.45534079  0.93267266  0.58397875     0.82500
N312        N  0.44561626  0.94248648  0.58405096    -0.80000
N313        N  0.16327507  0.09070905  0.82168506    -0.27500
N314        N  0.17101045  0.10090624  0.82596504    -0.35400
C315        C  0.16413092  0.10834276  0.83506500     0.00800
C316        C  0.15136110  0.10260189  0.83678883     0.06800
C317        C  0.15113467  0.09143476  0.82804476    -0.06300
H318        H  0.16831538  0.11718322  0.84019149     0.07500
H319        H  0.14297405  0.08409754  0.82677242     0.08700
Cu320      Cu  0.19095854  0.10409549  0.82036397     0.44200
Cu321      Cu  0.17047044  0.07602186  0.80811435     0.42000
Cu322      Cu  0.20623633  0.08133836  0.79707923     0.43900
N323        N  0.21092670  0.10605211  0.81431235    -0.34900
N324        N  0.21662959  0.09795338  0.80525090    -0.29200
C325        C  0.22948494  0.10224765  0.80303176    -0.05300
C326        C  0.23196664  0.11346460  0.81130117     0.06900
C327        C  0.21997112  0.11555082  0.81830438     0.00700
H328        H  0.23651552  0.09750150  0.79603788     0.08400
H329        H  0.21783650  0.12361224  0.82550635     0.07500
N330        N  0.19409471  0.06474530  0.79169309    -0.36400
N331        N  0.18134139  0.06276690  0.79555699    -0.28600
C332        C  0.17699526  0.05068247  0.79061711    -0.03800
C333        C  0.18750836  0.04469203  0.78332560     0.04800
C334        C  0.19815205  0.05400271  0.78425708     0.02900
H335        H  0.16699451  0.04646440  0.79254014     0.08000
H336        H  0.20826250  0.05303902  0.78005922     0.06800
N337        N  0.31785944  0.34542829  0.92167331    -0.27500
N338        N  0.31951942  0.33970233  0.90962921    -0.35400
C339        C  0.32691546  0.34798255  0.90163252     0.00800
C340        C  0.33023465  0.35950846  0.90901433     0.06800
C341        C  0.32441074  0.35754716  0.92174585    -0.06300
H342        H  0.32985202  0.34564760  0.89127640     0.07500
H343        H  0.32465885  0.36451815  0.93028533     0.08700
Cu344      Cu  0.31241802  0.32059969  0.90486663     0.44200
Cu345      Cu  0.30609576  0.33615539  0.93670645     0.42000
Cu346      Cu  0.29459685  0.30056397  0.92977524     0.43900
N347        N  0.30723396  0.30052826  0.90195413    -0.34900
N348        N  0.30057756  0.29289809  0.91085576    -0.29200
C349        C  0.29919196  0.28021970  0.90564428    -0.05300
C350        C  0.30550709  0.27996406  0.89298832     0.06900
C351        C  0.31044652  0.29302173  0.89103985     0.00700
H352        H  0.29431945  0.27175429  0.91082093     0.08400
H353        H  0.31601348  0.29684160  0.88231852     0.07500
N354        N  0.28975838  0.31180080  0.94720059    -0.36400
N355        N  0.29346684  0.32464521  0.94935531    -0.28600
C356        C  0.28801371  0.32891819  0.96115870    -0.03800
C357        C  0.28069058  0.31825110  0.96685748     0.04800
C358        C  0.28207497  0.30754156  0.95775844     0.02900
H359        H  0.28952385  0.33899342  0.96542309     0.08000
H360        H  0.27763861  0.29744870  0.95863362     0.06800
N361        N  0.41851722  0.19270335  0.65941414    -0.27500
N362        N  0.40705501  0.19027229  0.66596829    -0.35400
C363        C  0.39862323  0.18305674  0.65796450     0.00800
C364        C  0.40502156  0.18069944  0.64563715     0.06800
C365        C  0.41769220  0.18698804  0.64694127    -0.06300
H366        H  0.38876122  0.17935829  0.66119141     0.07500
H367        H  0.42580340  0.18720362  0.63951501     0.08700
Cu368      Cu  0.40361488  0.19601624  0.68580199     0.44200
Cu369      Cu  0.43450756  0.20325323  0.66866666     0.42000
Cu370      Cu  0.42871357  0.21490524  0.70443193     0.43900
N371        N  0.40104341  0.20191202  0.70572862    -0.34900
N372        N  0.40996791  0.20916774  0.71276850    -0.29200
C373        C  0.40501338  0.21108507  0.72544546    -0.05300
C374        C  0.39247698  0.20450930  0.72635881     0.06900
C375        C  0.39034582  0.19886609  0.71363522     0.00700
H376        H  0.41033249  0.21642829  0.73351104     0.08400
H377        H  0.38165848  0.19290770  0.71032093     0.07500
N378        N  0.44656271  0.21811621  0.69324941    -0.36400
N379        N  0.44853828  0.21397837  0.68056482    -0.28600
C380        C  0.46104689  0.21787364  0.67655266    -0.03800
C381        C  0.46736679  0.22481186  0.68715447     0.04800
C382        C  0.45782715  0.22471014  0.69758404     0.02900
H383        H  0.46519537  0.21571816  0.66659578     0.08000
H384        H  0.45886593  0.22925031  0.70757110     0.06800
C385        C  0.31541987  0.20431808  0.82390769     0.80000
N386        N  0.32502820  0.20502934  0.81398618    -0.78300
C387        C  0.32570076  0.19524618  0.80419766     0.82400
N388        N  0.31662938  0.18471375  0.80437403    -0.78300
C389        C  0.30704468  0.18381953  0.81430952     0.82500
N390        N  0.30654173  0.19365591  0.82403355    -0.80000
N391        N  0.16500358  0.88936881  0.07293607    -0.27500
N392        N  0.15292249  0.89519184  0.07337339    -0.35400
C393        C  0.14432416  0.88710099  0.08034980     0.00800
C394        C  0.15132129  0.87558245  0.08464938     0.06800
C395        C  0.16443353  0.87739143  0.07967286    -0.06300
H396        H  0.13399721  0.88989695  0.08286148     0.07500
H397        H  0.17309407  0.87079227  0.08125660     0.08700
Cu398      Cu  0.14941809  0.91495147  0.06678460     0.44200
Cu399      Cu  0.18189102  0.89897127  0.06451439     0.42000
Cu400      Cu  0.17857661  0.93561297  0.05734483     0.43900
N401        N  0.14876664  0.93594025  0.06443115    -0.34900
N402        N  0.15937454  0.94370545  0.06142790    -0.29200
C403        C  0.15556549  0.95691410  0.06202996    -0.05300
C404        C  0.14189498  0.95746822  0.06566986     0.06900
C405        C  0.13800204  0.94390353  0.06701003     0.00700
H406        H  0.16236794  0.96544929  0.06031041     0.08400
H407        H  0.12814398  0.93997226  0.06996005     0.07500
N408        N  0.19606811  0.92420359  0.05346508    -0.36400
N409        N  0.19717369  0.91099348  0.05606624    -0.28600
C410        C  0.20951243  0.90669915  0.05206811    -0.03800
C411        C  0.21661975  0.91768692  0.04661627     0.04800
C412        C  0.20771538  0.92862382  0.04770530     0.02900
H413        H  0.21288246  0.89622946  0.05283551     0.08000
H414        H  0.20948424  0.93904691  0.04449050     0.06800
N415        N  0.90580171  0.05517068  0.17018948    -0.27500
N416        N  0.91340066  0.05874432  0.15967974    -0.35400
C417        C  0.90624383  0.06703541  0.15148210     0.00800
C418        C  0.89341699  0.06884597  0.15702072     0.06800
C419        C  0.89351172  0.06111333  0.16892083    -0.06300
H420        H  0.91017728  0.07134787  0.14213079     0.07500
H421        H  0.88538407  0.06007999  0.17626716     0.08700
Cu422      Cu  0.93318724  0.05231364  0.15669580     0.44200
Cu423      Cu  0.91310711  0.04277510  0.18578334     0.42000
Cu424      Cu  0.94811253  0.02979193  0.18102817     0.43900
N425        N  0.95260266  0.04451187  0.15464985    -0.34900
N426        N  0.95812538  0.03587156  0.16338946    -0.29200
C427        C  0.97080585  0.03283385  0.15918309    -0.05300
C428        C  0.97340826  0.04006922  0.14728247     0.06900
C429        C  0.96158713  0.04731644  0.14473810     0.00700
H430        H  0.97775647  0.02623036  0.16463286     0.08400
H431        H  0.95962414  0.05417893  0.13630990     0.07500
N432        N  0.93642029  0.02687617  0.19842898    -0.36400
N433        N  0.92390019  0.03147107  0.20013338    -0.28600
C434        C  0.91967433  0.02815848  0.21274404    -0.03800
C435        C  0.93002091  0.02115965  0.21939185     0.04800
C436        C  0.94046188  0.02055626  0.20991416     0.02900
H437        H  0.90981526  0.03086904  0.21675555     0.08000
H438        H  0.95040095  0.01604702  0.21123191     0.06800
N439        N  0.06847772  0.14526654  0.91936813    -0.27500
N440        N  0.07461576  0.13669031  0.92774557    -0.35400
C441        C  0.08397745  0.12958200  0.92089072     0.00800
C442        C  0.08385586  0.13382857  0.90744391     0.06800
C443        C  0.07381783  0.14377586  0.90680139    -0.06300
H444        H  0.09038855  0.12185644  0.92544527     0.07500
H445        H  0.07091030  0.14976297  0.89798970     0.08700
Cu446      Cu  0.07011618  0.13462575  0.94809877     0.44200
Cu447      Cu  0.05375634  0.15881265  0.92632068     0.42000
Cu448      Cu  0.04272308  0.15341870  0.96216883     0.43900
N449        N  0.06277218  0.13112990  0.96739395    -0.34900
N450        N  0.05218332  0.13753905  0.97255214    -0.29200
C451        C  0.04922193  0.13198710  0.98477588    -0.05300
C452        C  0.05852922  0.12166938  0.98740123     0.06900
C453        C  0.06695359  0.12147583  0.97614420     0.00700
H454        H  0.04091789  0.13519617  0.99122417     0.08400
H455        H  0.07518621  0.11445773  0.97415894     0.07500
N456        N  0.03683933  0.16968689  0.94985574    -0.36400
N457        N  0.04077064  0.17163282  0.93710402    -0.28600
C458        C  0.03567499  0.18355338  0.93261112    -0.03800
C459        C  0.02817516  0.18949036  0.94300173     0.04800
C460        C  0.02916165  0.18031496  0.95376047     0.02900
H461        H  0.03764030  0.18768183  0.92257779     0.08000
H462        H  0.02492311  0.18135238  0.96385922     0.06800
C463        C  0.05506456  0.04371010  0.08467459     0.80000
N464        N  0.06583399  0.03500772  0.08532771    -0.78300
C465        C  0.07568118  0.03535320  0.07554479     0.82400
N466        N  0.07465815  0.04454461  0.06517757    -0.78300
C467        C  0.06407831  0.05339263  0.06453060     0.82500
N468        N  0.05437982  0.05289837  0.07431126    -0.80000
N469        N  0.35129735  0.90580249  0.32105549    -0.27500
N470        N  0.34435689  0.89493173  0.32496202    -0.35400
C471        C  0.35263641  0.88633992  0.33161119     0.00800
C472        C  0.36555573  0.89203983  0.33202927     0.06800
C473        C  0.36429910  0.90444515  0.32520509    -0.06300
H474        H  0.34927617  0.87684330  0.33614690     0.07500
H475        H  0.37215602  0.91201361  0.32349097     0.08700
Cu476      Cu  0.32385667  0.89246921  0.32165532     0.44200
Cu477      Cu  0.34209464  0.92170516  0.31048427     0.42000
Cu478      Cu  0.30599323  0.91640796  0.30050976     0.43900
N479        N  0.30351259  0.89076101  0.31712619    -0.34900
N480        N  0.29686141  0.89905575  0.30884815    -0.29200
C481        C  0.28394881  0.89450130  0.30758882    -0.05300
C482        C  0.28247985  0.88293335  0.31567022     0.06900
C483        C  0.29508889  0.88091549  0.32154197     0.00700
H484        H  0.27619148  0.89933257  0.30141825     0.08400
H485        H  0.29806409  0.87266714  0.32825964     0.07500
N486        N  0.31759485  0.93362886  0.29566320    -0.36400
N487        N  0.33041186  0.93551511  0.29941640    -0.28600
C488        C  0.33469148  0.94772422  0.29480616    -0.03800
C489        C  0.32412269  0.95392214  0.28776225     0.04800
C490        C  0.31342859  0.94464293  0.28856590     0.02900
H491        H  0.34479622  0.95175810  0.29657879     0.08000
H492        H  0.30335270  0.94571826  0.28425247     0.06800
N493        N  0.10060892  0.79870484  0.16922342    -0.27500
N494        N  0.11110771  0.80226052  0.17685021    -0.35400
C495        C  0.11991136  0.80963628  0.16940827     0.00800
C496        C  0.11478543  0.81093000  0.15629451     0.06800
C497        C  0.10247436  0.80380089  0.15658420    -0.06300
H498        H  0.12917946  0.81400262  0.17348544     0.07500
H499        H  0.09521391  0.80266450  0.14836362     0.08700
Cu500      Cu  0.11264257  0.79777287  0.19725031     0.44200
Cu501      Cu  0.08410895  0.78786186  0.17730103     0.42000
Cu502      Cu  0.08552192  0.78075938  0.21469664     0.43900
N503        N  0.11321535  0.79329332  0.21769571    -0.34900
N504        N  0.10354560  0.78673018  0.22439708    -0.29200
C505        C  0.10737746  0.78558110  0.23758739    -0.05300
C506        C  0.11994461  0.79196907  0.23912770     0.06900
C507        C  0.12327290  0.79667330  0.22629578     0.00700
H508        H  0.10131426  0.78086437  0.24550539     0.08400
H509        H  0.13237987  0.80218067  0.22337298     0.07500
N510        N  0.06888366  0.77657969  0.20200123    -0.36400
N511        N  0.06856068  0.77864558  0.18864555    -0.28600
C512        C  0.05636485  0.77455263  0.18380851    -0.03800
C513        C  0.04854086  0.76986665  0.19459984     0.04800
C514        C  0.05682296  0.77134593  0.20596300     0.02900
H515        H  0.05328325  0.77530678  0.17323865     0.08000
H516        H  0.05431251  0.76871203  0.21637550     0.06800
N517        N  0.20317958  0.64608622  0.41977211    -0.27500
N518        N  0.19723162  0.65390830  0.41054773    -0.35400
C519        C  0.18966968  0.64610277  0.40221044     0.00800
C520        C  0.19078097  0.63264326  0.40637522     0.06800
C521        C  0.19939870  0.63301936  0.41761375    -0.06300
H522        H  0.18349807  0.65004490  0.39395701     0.07500
H523        H  0.20264499  0.62446703  0.42379812     0.08700
Cu524      Cu  0.19921651  0.67487468  0.40974159     0.44200
Cu525      Cu  0.21580512  0.65398589  0.43492933     0.42000
Cu526      Cu  0.22129629  0.69120926  0.43385717     0.43900
N527        N  0.20344706  0.69551907  0.40937746    -0.34900
N528        N  0.21201544  0.70159145  0.41783381    -0.29200
C529        C  0.21317403  0.71484160  0.41425502    -0.05300
C530        C  0.20476358  0.71718433  0.40311840     0.06900
C531        C  0.19877249  0.70468946  0.40034506     0.00700
H532        H  0.21959205  0.72221087  0.41941248     0.08400
H533        H  0.19185011  0.70230272  0.39208356     0.07500
N534        N  0.22801628  0.67845742  0.44947729    -0.36400
N535        N  0.22634212  0.66503909  0.44972125    -0.28600
C536        C  0.23133366  0.66013282  0.46154197    -0.03800
C537        C  0.23622323  0.67097200  0.46921944     0.04800
C538        C  0.23396265  0.68241784  0.46119688     0.02900
H539        H  0.23077509  0.64952677  0.46460643     0.08000
H540        H  0.23619876  0.69292576  0.46378116     0.06800
C541        C  0.19657090  0.79534957  0.33691877     0.80000
N542        N  0.20634077  0.80517656  0.33600899    -0.78300
C543        C  0.20626873  0.81425985  0.32549482     0.82400
N544        N  0.19634932  0.81339510  0.31584211    -0.78300
C545        C  0.18650633  0.80364753  0.31667469     0.82500
N546        N  0.18666568  0.79471368  0.32725812    -0.80000
N547        N  0.84791792  0.58081857  0.69790406    -0.27500
N548        N  0.83920683  0.58865840  0.69128361    -0.35400
C549        C  0.84599830  0.59650543  0.68232974     0.00800
C550        C  0.85974828  0.59357240  0.68331497     0.06800
C551        C  0.86058547  0.58356196  0.69335373    -0.06300
H552        H  0.84124633  0.60402376  0.67580141     0.07500
H553        H  0.86968181  0.57849988  0.69694268     0.08700
Cu554      Cu  0.81859713  0.58920741  0.69544223     0.44200
Cu555      Cu  0.84151519  0.56656422  0.71239776     0.42000
Cu556      Cu  0.80526025  0.56795419  0.72212712     0.43900
N557        N  0.79949351  0.59179005  0.70379292    -0.34900
N558        N  0.79474830  0.58459475  0.71416436    -0.29200
C559        C  0.78293565  0.59016728  0.71832099    -0.05300
C560        C  0.78009067  0.60128939  0.71000171     0.06900
C561        C  0.79080981  0.60193978  0.70091797     0.00700
H562        H  0.77700171  0.58653922  0.72687833     0.08400
H563        H  0.79260508  0.60972663  0.69328317     0.07500
N564        N  0.81844196  0.55215209  0.72733316    -0.36400
N565        N  0.83156158  0.55193054  0.72428485    -0.28600
C566        C  0.83703570  0.54037579  0.72928902    -0.03800
C567        C  0.82688622  0.53286109  0.73563298     0.04800
C568        C  0.81522735  0.54063757  0.73415499     0.02900
H569        H  0.84757654  0.53748577  0.72806028     0.08000
H570        H  0.80515207  0.53817889  0.73787504     0.06800
N571        N  0.70608639  0.84707877  0.61798883    -0.27500
N572        N  0.70122010  0.83924489  0.62782755    -0.35400
C573        C  0.69226925  0.84635312  0.63522384     0.00800
C574        C  0.69128707  0.85937529  0.62983181     0.06800
C575        C  0.70030216  0.85952562  0.61893356    -0.06300
H576        H  0.68653335  0.84211561  0.64363465     0.07500
H577        H  0.70189221  0.86776093  0.61173414     0.08700
Cu578      Cu  0.70551694  0.81879228  0.63019408     0.44200
Cu579      Cu  0.71890410  0.83933669  0.60294977     0.42000
Cu580      Cu  0.72580752  0.80211785  0.60547096     0.43900
N581        N  0.71039954  0.79837715  0.63143532    -0.34900
N582        N  0.71835820  0.79214135  0.62261451    -0.29200
C583        C  0.71992429  0.77904187  0.62654894    -0.05300
C584        C  0.71235825  0.77696886  0.63829202     0.06900
C585        C  0.70647336  0.78945477  0.64106098     0.00700
H586        H  0.72587835  0.77154544  0.62112942     0.08400
H587        H  0.69998082  0.79195398  0.64958272     0.07500
N588        N  0.73106220  0.81445318  0.58902266    -0.36400
N589        N  0.72909695  0.82781240  0.58829706    -0.28600
C590        C  0.73385241  0.83238034  0.57625370    -0.03800
C591        C  0.73886342  0.82137759  0.56898431     0.04800
C592        C  0.73688850  0.81019293  0.57739908     0.02900
H593        H  0.73330021  0.84288535  0.57286481     0.08000
H594        H  0.73955413  0.79970025  0.57527955     0.06800
N595        N  0.60568097  0.69537239  0.87363325    -0.27500
N596        N  0.61800748  0.69423272  0.86844685    -0.35400
C597        C  0.62619270  0.68819883  0.87759450     0.00800
C598        C  0.61865168  0.68527344  0.88912102     0.06800
C599        C  0.60564165  0.68991907  0.88624539    -0.06300
H600        H  0.63672041  0.68560823  0.87573784     0.07500
H601        H  0.59678873  0.68927351  0.89275485     0.08700
Cu602      Cu  0.62288510  0.69987959  0.84881305     0.44200
Cu603      Cu  0.58978833  0.70414691  0.86282988     0.42000
Cu604      Cu  0.59764464  0.71690931  0.82827011     0.43900
N605        N  0.62592451  0.70516663  0.82870517    -0.34900
N606        N  0.61695415  0.71172408  0.82108724    -0.29200
C607        C  0.62211636  0.71319691  0.80843897    -0.05300
C608        C  0.63483842  0.70707692  0.80811914     0.06900
C609        C  0.63687166  0.70212690  0.82116441     0.00700
H610        H  0.61675980  0.71780736  0.79996236     0.08400
H611        H  0.64559906  0.69653862  0.82490069     0.07500
N612        N  0.57883882  0.71903660  0.83796527    -0.36400
N613        N  0.57602507  0.71407577  0.85020689    -0.28600
C614        C  0.56301271  0.71688939  0.85328105    -0.03800
C615        C  0.55730443  0.72407304  0.84255303     0.04800
C616        C  0.56765518  0.72526994  0.83302443     0.02900
H617        H  0.55817428  0.71416073  0.86280070     0.08000
H618        H  0.56707714  0.73019520  0.82316212     0.06800
C619        C  0.69669926  0.69221994  0.72719559     0.80000
N620        N  0.70543161  0.68148622  0.72693041    -0.78300
C621        C  0.71400615  0.67972643  0.71622101     0.82400
N622        N  0.71391814  0.68895625  0.70583888    -0.78300
C623        C  0.70530984  0.69977577  0.70600700     0.82500
N624        N  0.69664584  0.70125273  0.71667054    -0.80000
N625        N  0.90787032  0.69314751  0.16637272    -0.27500
N626        N  0.89907948  0.68677998  0.17438345    -0.35400
C627        C  0.89319469  0.67651575  0.16743423     0.00800
C628        C  0.89837885  0.67643455  0.15434122     0.06800
C629        C  0.90762452  0.68717669  0.15398954    -0.06300
H630        H  0.88561817  0.66965126  0.17160869     0.07500
H631        H  0.91402508  0.69013226  0.14551865     0.08700
Cu632      Cu  0.89511113  0.69224796  0.19439168     0.44200
Cu633      Cu  0.92060065  0.70881726  0.17330606     0.42000
Cu634      Cu  0.91475898  0.71968780  0.20849153     0.43900
N635        N  0.89172617  0.70015756  0.21367758    -0.34900
N636        N  0.89862535  0.71059077  0.21874422    -0.29200
C637        C  0.89382920  0.71345073  0.23126148    -0.05300
C638        C  0.88348778  0.70425672  0.23428124     0.06900
C639        C  0.88245046  0.69600529  0.22285292     0.00700
H640        H  0.89778846  0.72144309  0.23777559     0.08400
H641        H  0.87535791  0.68768623  0.22121707     0.07500
N642        N  0.93154243  0.72547405  0.19697093    -0.36400
N643        N  0.93355738  0.72186603  0.18414345    -0.28600
C644        C  0.94576229  0.72670002  0.18010769    -0.03800
C645        C  0.95180468  0.73350990  0.19095504     0.04800
C646        C  0.94245092  0.73251519  0.20145260     0.02900
H647        H  0.95023574  0.72473174  0.17024343     0.08000
H648        H  0.94360723  0.73633303  0.21173348     0.06800
N649        N  0.65317495  0.59562277  0.32221909    -0.27500
N650        N  0.66083383  0.60501679  0.32811897    -0.35400
C651        C  0.65309266  0.61272287  0.33625688     0.00800
C652        C  0.63979848  0.60798178  0.33556253     0.06800
C653        C  0.64026797  0.59708108  0.32652269    -0.06300
H654        H  0.65703432  0.62105865  0.34231242     0.07500
H655        H  0.63192600  0.59059587  0.32333245     0.08700
Cu656      Cu  0.68143522  0.60719970  0.32501868     0.44200
Cu657      Cu  0.66098535  0.58123541  0.30886555     0.42000
Cu658      Cu  0.69727533  0.58523968  0.30079260     0.43900
N659        N  0.70142568  0.60931869  0.31915860    -0.34900
N660        N  0.70725336  0.60166031  0.30979468    -0.29200
C661        C  0.71991033  0.60645384  0.30748819    -0.05300
C662        C  0.72212962  0.61757639  0.31595443     0.06900
C663        C  0.71017955  0.61904934  0.32320247     0.00700
H664        H  0.72691414  0.60220725  0.30015715     0.08400
H665        H  0.70777249  0.62697269  0.33046689     0.07500
N666        N  0.68515410  0.56905633  0.29428490    -0.36400
N667        N  0.67201837  0.56772832  0.29694076    -0.28600
C668        C  0.66749528  0.55590450  0.29157628    -0.03800
C669        C  0.67832231  0.54939009  0.28538156     0.04800
C670        C  0.68934049  0.55804637  0.28731096     0.02900
H671        H  0.65722110  0.55205327  0.29266353     0.08000
H672        H  0.69971803  0.55638708  0.28407776     0.06800
N673        N  0.80523030  0.85312980  0.42304300    -0.27500
N674        N  0.80524936  0.84757908  0.41080236    -0.35400
C675        C  0.81251601  0.85545331  0.40228982     0.00800
C676        C  0.81745504  0.86662862  0.40944900     0.06800
C677        C  0.81254040  0.86480154  0.42263274    -0.06300
H678        H  0.81439113  0.85284997  0.39176443     0.07500
H679        H  0.81451751  0.87116327  0.43141805     0.08700
Cu680      Cu  0.79700273  0.82869560  0.40648045     0.44200
Cu681      Cu  0.79611382  0.84345808  0.43961030     0.42000
Cu682      Cu  0.78542082  0.80755019  0.43400678     0.43900
N683        N  0.79183119  0.80842194  0.40413648    -0.34900
N684        N  0.78786429  0.80037416  0.41418751    -0.29200
C685        C  0.78664577  0.78753266  0.40939820    -0.05300
C686        C  0.79008780  0.78752151  0.39563847     0.06900
C687        C  0.79326310  0.80102860  0.39274796     0.00700
H688        H  0.78388889  0.77883303  0.41561981     0.08400
H689        H  0.79697301  0.80521435  0.38325479     0.07500
N690        N  0.78354799  0.81802250  0.45238410    -0.36400
N691        N  0.78706917  0.83095507  0.45424797    -0.28600
C692        C  0.78383599  0.83462081  0.46703722    -0.03800
C693        C  0.77807772  0.82348535  0.47362073     0.04800
C694        C  0.77811856  0.81312955  0.46400932     0.02900
H695        H  0.78559602  0.84468792  0.47122255     0.08000
H696        H  0.77413105  0.80288735  0.46522242     0.06800
C697        C  0.79602688  0.68911997  0.31979478     0.80000
N698        N  0.79506586  0.69892674  0.32948448    -0.78300
C699        C  0.80450750  0.70905029  0.33042129     0.82400
N700        N  0.81504552  0.70933867  0.32141733    -0.78300
C701        C  0.81606662  0.69962461  0.31156089     0.82500
N702        N  0.80655395  0.68953120  0.31089931    -0.80000
N703        N  0.70722254  0.13437667  0.92116862    -0.27500
N704        N  0.70636516  0.13954678  0.90874955    -0.35400
C705        C  0.70041874  0.13038359  0.90045950     0.00800
C706        C  0.69720132  0.11890941  0.90804711     0.06800
C707        C  0.70162395  0.12180631  0.92116422    -0.06300
H708        H  0.69796504  0.13224106  0.88985944     0.07500
H709        H  0.70065412  0.11535912  0.93008265     0.08700
Cu710      Cu  0.71172846  0.15938823  0.90402275     0.44200
Cu711      Cu  0.71559158  0.14512463  0.93741480     0.42000
Cu712      Cu  0.72355947  0.18128124  0.93108211     0.43900
N713        N  0.71573515  0.17994427  0.90151471    -0.34900
N714        N  0.71998853  0.18812671  0.91133124    -0.29200
C715        C  0.72144045  0.20082889  0.90622563    -0.05300
C716        C  0.71789036  0.20062162  0.89249127     0.06900
C717        C  0.71431969  0.18714198  0.88995946     0.00700
H718        H  0.72480808  0.20951927  0.91213653     0.08400
H719        H  0.71090124  0.18273615  0.88045329     0.07500
N720        N  0.72694987  0.17127762  0.94948463    -0.36400
N721        N  0.72435861  0.15818239  0.95165739    -0.28600
C722        C  0.72818933  0.15493192  0.96442574    -0.03800
C723        C  0.73334319  0.16654485  0.97066208     0.04800
C724        C  0.73236408  0.17671022  0.96086787     0.02900
H725        H  0.72711495  0.14486982  0.96887490     0.08000
H726        H  0.73556187  0.18724873  0.96183191     0.06800
N727        N  0.60879036  0.30507258  0.66220584    -0.27500
N728        N  0.62000975  0.30733460  0.66927731    -0.35400
C729        C  0.62817400  0.31584039  0.66236651     0.00800
C730        C  0.62187322  0.31929108  0.65021246     0.06800
C731        C  0.60954830  0.31220078  0.65044157    -0.06300
H732        H  0.63795251  0.31928472  0.66611433     0.07500
H733        H  0.60159052  0.31242888  0.64280915     0.08700
Cu734      Cu  0.62376326  0.29949345  0.68829207     0.44200
Cu735      Cu  0.59322811  0.29265141  0.66985240     0.42000
Cu736      Cu  0.59964275  0.27799573  0.70450760     0.43900
N737        N  0.62662298  0.29178332  0.70751194    -0.34900
N738        N  0.61795072  0.28352953  0.71368481    -0.29200
C739        C  0.62301891  0.28025495  0.72604811    -0.05300
C740        C  0.63539537  0.28696909  0.72766444     0.06900
C741        C  0.63730621  0.29414534  0.71568606     0.00700
H742        H  0.61798174  0.27369430  0.73336714     0.08400
H743        H  0.64592190  0.30049867  0.71297751     0.07500
N744        N  0.58203805  0.27505466  0.69300121    -0.36400
N745        N  0.57970499  0.28021530  0.68073207    -0.28600
C746        C  0.56719407  0.27631611  0.67662458    -0.03800
C747        C  0.56130280  0.26832179  0.68675605     0.04800
C748        C  0.57109435  0.26778735  0.69695975     0.02900
H749        H  0.56276274  0.27916682  0.66693818     0.08000
H750        H  0.57035042  0.26264616  0.70669022     0.06800
N751        N  0.86824574  0.39304380  0.81149869    -0.27500
N752        N  0.86345861  0.38041829  0.81125720    -0.35400
C753        C  0.87195377  0.37219832  0.81814408     0.00800
C754        C  0.88254288  0.38002945  0.82317753     0.06800
C755        C  0.87987515  0.39322460  0.81878862    -0.06300
H756        H  0.86993726  0.36154530  0.82033413     0.07500
H757        H  0.88561830  0.40235559  0.82121665     0.08700
Cu758      Cu  0.84420469  0.37540156  0.80457544     0.44200
Cu759      Cu  0.85773354  0.40940913  0.80304127     0.42000
Cu760      Cu  0.82151086  0.40290099  0.79646790     0.43900
N761        N  0.82352729  0.37286096  0.80212061    -0.34900
N762        N  0.81499381  0.38290414  0.79948349    -0.29200
C763        C  0.80223402  0.37783884  0.79926562    -0.05300
C764        C  0.80278746  0.36389453  0.80195599     0.06900
C765        C  0.81652005  0.36119422  0.80371044     0.00700
H766        H  0.79326912  0.38393435  0.79739495     0.08400
H767        H  0.82120810  0.35154203  0.80621519     0.07500
N768        N  0.83139006  0.42123348  0.79221901    -0.36400
N769        N  0.84453526  0.42346906  0.79420413    -0.28600
C770        C  0.84775299  0.43592069  0.78931299    -0.03800
C771        C  0.83606836  0.44187001  0.78406351     0.04800
C772        C  0.82590121  0.43224871  0.78615232     0.02900
H773        H  0.85789466  0.44025744  0.78949733     0.08000
H774        H  0.81536522  0.43294885  0.78301205     0.06800
C775        C  0.72634026  0.29523933  0.81114329     0.80000
N776        N  0.71643795  0.29474063  0.80150134    -0.78300
C777        C  0.70626912  0.28537154  0.80220522     0.82400
N778        N  0.70604417  0.27636593  0.81274014    -0.78300
C779        C  0.71598087  0.27656415  0.82242266     0.82500
N780        N  0.72609940  0.28606284  0.82157176    -0.80000
N781        N  0.66520073  0.40404127  0.56899473    -0.27500
N782        N  0.65605688  0.41169314  0.57516682    -0.35400
C783        C  0.64923915  0.40411576  0.58428527     0.00800
C784        C  0.65420736  0.39096204  0.58385525     0.06800
C785        C  0.66429696  0.39120828  0.57397857    -0.06300
H786        H  0.64136755  0.40798572  0.59091551     0.07500
H787        H  0.67091056  0.38288455  0.57113083     0.08700
Cu788      Cu  0.65334917  0.43220306  0.57152545     0.44200
Cu789      Cu  0.67916074  0.41239777  0.55528370     0.42000
Cu790      Cu  0.67597193  0.44987924  0.54939440     0.43900
N791        N  0.65085398  0.45243677  0.56644102    -0.34900
N792        N  0.65890967  0.45916585  0.55800329    -0.29200
C793        C  0.65400711  0.47193353  0.55639332    -0.05300
C794        C  0.64238229  0.47323920  0.56434822     0.06900
C795        C  0.64076268  0.46063001  0.57052960     0.00700
H796        H  0.65857556  0.47967329  0.54996415     0.08400
H797        H  0.63262189  0.45745858  0.57724484     0.07500
N798        N  0.69188396  0.43768860  0.54227328    -0.36400
N799        N  0.69276815  0.42428833  0.54396788    -0.28600
C800        C  0.70419195  0.41983234  0.53788724    -0.03800
C801        C  0.71093378  0.43091710  0.53220647     0.04800
C802        C  0.70282675  0.44205799  0.53523794     0.02900
H803        H  0.70754911  0.40932102  0.53796503     0.08000
H804        H  0.70469931  0.45260091  0.53247664     0.06800
N805        N  0.55651522  0.65346596  0.41411618    -0.27500
N806        N  0.55782890  0.64129188  0.41974846    -0.35400
C807        C  0.56444638  0.63305031  0.41110795     0.00800
C808        C  0.56752318  0.64043039  0.39944803     0.06800
C809        C  0.56232432  0.65335979  0.40173795    -0.06300
H810        H  0.56738915  0.62267483  0.41346656     0.07500
H811        H  0.56293540  0.66214544  0.39506297     0.08700
Cu812      Cu  0.55178761  0.63704586  0.43941347     0.44200
Cu813      Cu  0.54739818  0.66963763  0.42394096     0.42000
Cu814      Cu  0.53648777  0.66437916  0.45911361     0.43900
N815        N  0.54688132  0.63544658  0.45977506    -0.34900
N816        N  0.54146964  0.64530715  0.46713571    -0.29200
C817        C  0.54030193  0.64092815  0.48010942    -0.05300
C818        C  0.54522185  0.62765505  0.48091994     0.06900
C819        C  0.54928999  0.62459742  0.46777565     0.00700
H820        H  0.53629726  0.64704670  0.48832472     0.08400
H821        H  0.55406128  0.61533169  0.46424688     0.07500
N822        N  0.53307268  0.68222624  0.44801511    -0.36400
N823        N  0.53718955  0.68403593  0.43532294    -0.28600
C824        C  0.53334915  0.69645115  0.43099043    -0.03800
C825        C  0.52641970  0.70289767  0.44142255     0.04800
C826        C  0.52645460  0.69351513  0.45207929     0.02900
H827        H  0.53529636  0.70031447  0.42084931     0.08000
H828        H  0.52201161  0.69473177  0.46206975     0.06800
N829        N  0.40869099  0.55806996  0.67711915    -0.27500
N830        N  0.41454812  0.56029110  0.66520222    -0.35400
C831        C  0.40559381  0.56633821  0.65679076     0.00800
C832        C  0.39353931  0.56819023  0.66377278     0.06800
C833        C  0.39588066  0.56290793  0.67668410    -0.06300
H834        H  0.40783021  0.56949478  0.64645683     0.07500
H835        H  0.38876579  0.56246199  0.68507380     0.08700
Cu836      Cu  0.43468550  0.55580612  0.66108398     0.44200
Cu837      Cu  0.41851443  0.54810268  0.69304596     0.42000
Cu838      Cu  0.45453679  0.54000671  0.68762055     0.43900
N839        N  0.45521692  0.55154603  0.65922977    -0.34900
N840        N  0.46250569  0.54541742  0.66877117    -0.29200
C841        C  0.47540751  0.54414668  0.66435076    -0.05300
C842        C  0.47628599  0.54999262  0.65151097     0.06900
C843        C  0.46329528  0.55457254  0.64861052     0.00700
H844        H  0.48361854  0.53972233  0.67022698     0.08400
H845        H  0.45994532  0.55974340  0.63944908     0.07500
N846        N  0.44380212  0.53524515  0.70522488    -0.36400
N847        N  0.43066089  0.53762602  0.70691025    -0.28600
C848        C  0.42670819  0.53232248  0.71892759    -0.03800
C849        C  0.43792574  0.52655908  0.72519389     0.04800
C850        C  0.44860354  0.52865578  0.71627808     0.02900
H851        H  0.41644348  0.53274547  0.72287188     0.08000
H852        H  0.45900444  0.52527821  0.71753933     0.06800
C853        C  0.57254281  0.54846574  0.57277713     0.80000
N854        N  0.57126357  0.55798964  0.56276211    -0.78300
C855        C  0.56083586  0.56705821  0.56289829     0.82400
N856        N  0.55183952  0.56671483  0.57336319    -0.78300
C857        C  0.55303017  0.55738921  0.58355997     0.82500
N858        N  0.56337276  0.54819799  0.58316633    -0.80000
N859        N  0.16698407  0.90249035  0.70329218    -0.27500
N860        N  0.17539249  0.89305998  0.69878865    -0.35400
C861        C  0.16864361  0.88440251  0.69063183     0.00800
C862        C  0.15519123  0.88850554  0.68975563     0.06800
C863        C  0.15451474  0.90006406  0.69799160    -0.06300
H864        H  0.17335243  0.87577007  0.68571709     0.07500
H865        H  0.14571376  0.90638344  0.69982624     0.08700
Cu866      Cu  0.19569644  0.89202343  0.70381180     0.44200
Cu867      Cu  0.17373696  0.91801298  0.71625908     0.42000
Cu868      Cu  0.20916695  0.91371091  0.72944304     0.43900
N869        N  0.21511092  0.88999131  0.71139551    -0.34900
N870        N  0.22006499  0.89742273  0.72147554    -0.29200
C871        C  0.23241698  0.89253284  0.72494205    -0.05300
C872        C  0.23534749  0.88161522  0.71643980     0.06900
C873        C  0.22412705  0.88035735  0.70800738     0.00700
H874        H  0.23871096  0.89653743  0.73308029     0.08400
H875        H  0.22231452  0.87256065  0.70041012     0.07500
N876        N  0.19663105  0.93031816  0.73341043    -0.36400
N877        N  0.18412560  0.93196704  0.72863657    -0.28600
C878        C  0.17950294  0.94423267  0.73266814    -0.03800
C879        C  0.18953734  0.95067774  0.74034370     0.04800
C880        C  0.20022413  0.94146252  0.74057766     0.02900
H881        H  0.16957047  0.94816519  0.73003927     0.08000
H882        H  0.21009309  0.94282535  0.74529017     0.06800
N883        N  0.30607714  0.64086742  0.61372889    -0.27500
N884        N  0.30629039  0.64596883  0.62617695    -0.35400
C885        C  0.31382365  0.63792493  0.63428605     0.00800
C886        C  0.31876566  0.62725636  0.62657562     0.06800
C887        C  0.31373290  0.62947168  0.61352751    -0.06300
H888        H  0.31599597  0.64001131  0.64490080     0.07500
H889        H  0.31548268  0.62327335  0.60458980     0.08700
Cu890      Cu  0.29767896  0.66441657  0.63123567     0.44200
Cu891      Cu  0.29509321  0.65010806  0.59808248     0.42000
Cu892      Cu  0.28089530  0.68439134  0.60550114     0.43900
N893        N  0.29169760  0.68433818  0.63416667    -0.34900
N894        N  0.28546403  0.69191039  0.62491650    -0.29200
C895        C  0.28412527  0.70468955  0.62987733    -0.05300
C896        C  0.29003962  0.70511915  0.64274864     0.06900
C897        C  0.29465819  0.69201258  0.64508654     0.00700
H898        H  0.27993688  0.71320097  0.62422952     0.08400
H899        H  0.30023409  0.68839457  0.65389793     0.07500
N900        N  0.27832931  0.67383179  0.58714922    -0.36400
N901        N  0.28305383  0.66141834  0.58472298    -0.28600
C902        C  0.27922260  0.65756949  0.57211770    -0.03800
C903        C  0.27192489  0.66809280  0.56619976     0.04800
C904        C  0.27160304  0.67825444  0.57600768     0.02900
H905        H  0.28189916  0.64794357  0.56745889     0.08000
H906        H  0.26675016  0.68811959  0.57514868     0.06800
N907        N  0.41558145  0.79620980  0.86945160    -0.27500
N908        N  0.40276159  0.79540957  0.86545713    -0.35400
C909        C  0.39487200  0.80211452  0.87433917     0.00800
C910        C  0.40310073  0.80756091  0.88442987     0.06800
C911        C  0.41621962  0.80365518  0.88098313    -0.06300
H912        H  0.38397818  0.80330554  0.87326269     0.07500
H913        H  0.42550585  0.80596521  0.88648284     0.08700
Cu914      Cu  0.39676295  0.78622469  0.84751708     0.44200
Cu915      Cu  0.43107989  0.78655916  0.85875994     0.42000
Cu916      Cu  0.42078281  0.76640781  0.82838009     0.43900
N917        N  0.39288325  0.77884408  0.82821507    -0.34900
N918        N  0.40139743  0.77127411  0.82110386    -0.29200
C919        C  0.39596478  0.76906379  0.80864365    -0.05300
C920        C  0.38356533  0.77578994  0.80790182     0.06900
C921        C  0.38198871  0.78182226  0.82051709     0.00700
H922        H  0.40101324  0.76367748  0.80048910     0.08400
H923        H  0.37368997  0.78825344  0.82377993     0.07500
N924        N  0.44020537  0.76629244  0.83712753    -0.36400
N925        N  0.44397098  0.77407913  0.84751361    -0.28600
C926        C  0.45726391  0.77205264  0.85007542    -0.03800
C927        C  0.46212715  0.76242608  0.84102873     0.04800
C928        C  0.45101224  0.75895820  0.83299760     0.02900
H929        H  0.46288724  0.77697308  0.85820255     0.08000
H930        H  0.45083339  0.75178207  0.82462975     0.06800
C931        C  0.31791886  0.78954630  0.72951147     0.80000
N932        N  0.30998442  0.80089722  0.72938923    -0.78300
C933        C  0.30087595  0.80301641  0.71915245     0.82400
N934        N  0.29965946  0.79357726  0.70907048    -0.78300
C935        C  0.30739968  0.78212052  0.70913567     0.82500
N936        N  0.31660012  0.78023604  0.71933635    -0.80000
N937        N  0.45391115  0.15163663  0.11531367    -0.27500
N938        N  0.45552683  0.13862032  0.11228207    -0.35400
C939        C  0.44866415  0.13090058  0.12126004     0.00800
C940        C  0.44231280  0.13943947  0.13045780     0.06800
C941        C  0.44583045  0.15256906  0.12634379    -0.06300
H942        H  0.44802185  0.11987795  0.12081798     0.07500
H943        H  0.44282346  0.16207542  0.13103684     0.08700
Cu944      Cu  0.46604799  0.13196603  0.09547691     0.44200
Cu945      Cu  0.46339041  0.16699091  0.10414162     0.42000
Cu946      Cu  0.48350034  0.15600889  0.07411373     0.43900
N947        N  0.47392212  0.12700893  0.07673098    -0.34900
N948        N  0.48029574  0.13567276  0.06859793    -0.29200
C949        C  0.48297254  0.12930856  0.05672002    -0.05300
C950        C  0.47786172  0.11606522  0.05746069     0.06900
C951        C  0.47227574  0.11503234  0.07034105     0.00700
H952        H  0.48766821  0.13415630  0.04799117     0.08400
H953        H  0.46702147  0.10634019  0.07469342     0.07500
N954        N  0.48384720  0.17559871  0.08249577    -0.36400
N955        N  0.47627025  0.17955864  0.09289791    -0.28600
C956        C  0.47898709  0.19274135  0.09562740    -0.03800
C957        C  0.48882185  0.19734868  0.08663219     0.04800
C958        C  0.49167633  0.18617859  0.07846803     0.02900
H959        H  0.47444208  0.19840575  0.10389078     0.08000
H960        H  0.49890336  0.18574787  0.07018457     0.06800
N961        N  0.35691193  0.88672295  0.96903668    -0.27500
N962        N  0.36949229  0.89150330  0.96928398    -0.35400
C963        C  0.37751072  0.88344843  0.96175626     0.00800
C964        C  0.36965756  0.87301440  0.95636378     0.06800
C965        C  0.35658443  0.87543386  0.96117703    -0.06300
H966        H  0.38819371  0.88540723  0.95992286     0.07500
H967        H  0.34751038  0.86950134  0.95906811     0.08700
Cu968      Cu  0.37506936  0.90949631  0.97861510     0.44200
Cu969      Cu  0.34122014  0.89648958  0.97943999     0.42000
Cu970      Cu  0.35008370  0.92999992  0.99512337     0.43900
N971        N  0.37893638  0.92902592  0.98537266    -0.34900
N972        N  0.36982465  0.93690943  0.99125951    -0.29200
C973        C  0.37533087  0.94942411  0.99306057    -0.05300
C974        C  0.38856053  0.94936702  0.98798445     0.06900
C975        C  0.39039544  0.93618116  0.98325319     0.00700
H976        H  0.36992565  0.95799973  0.99733091     0.08400
H977        H  0.39913847  0.93214930  0.97797467     0.07500
N978        N  0.33128585  0.92013573  0.99694173    -0.36400
N979        N  0.32813895  0.90823911  0.99134043    -0.28600
C980        C  0.31530446  0.90489395  0.99480434    -0.03800
C981        C  0.31001996  0.91513130  0.00298785     0.04800
C982        C  0.32050760  0.92462377  0.00407012     0.02900
H983        H  0.31025444  0.89562248  0.99156328     0.08000
H984        H  0.32045817  0.93405198  0.00978070     0.06800
N985        N  0.61596205  0.03637818  0.86270760    -0.27500
N986        N  0.61125157  0.03730235  0.87526140    -0.35400
C987        C  0.62031176  0.04403178  0.88301963     0.00800
C988        C  0.63125734  0.04768670  0.87495147     0.06800
C989        C  0.62813777  0.04272182  0.86207869    -0.06300
H990        H  0.61873158  0.04663195  0.89361088     0.07500
H991        H  0.63418956  0.04373400  0.85293154     0.08700
Cu992      Cu  0.59210451  0.03078728  0.88091300     0.44200
Cu993      Cu  0.60510496  0.02657056  0.84739058     0.42000
Cu994      Cu  0.57035059  0.01483359  0.85589409     0.43900
N995        N  0.57200290  0.02584740  0.88445545    -0.34900
N996        N  0.56391970  0.01981408  0.87550141    -0.29200
C997        C  0.55141849  0.01853099  0.88100139    -0.05300
C998        C  0.55166951  0.02422740  0.89395216     0.06900
C999        C  0.56490984  0.02872561  0.89575079     0.00700
H1000       H  0.54269027  0.01425458  0.87576578     0.08400
H1001       H  0.56911090  0.03385161  0.90457669     0.07500
N1002       N  0.57978900  0.01190029  0.83710106    -0.36400
N1003       N  0.59236521  0.01586859  0.83425146    -0.28600
C1004       C  0.59543687  0.01202619  0.82148290    -0.03800
C1005       C  0.58424863  0.00546260  0.81591458     0.04800
C1006       C  0.57448943  0.00561420  0.82608624     0.02900
H1007       H  0.60506939  0.01406988  0.81654621     0.08000
H1008       H  0.56435236  0.00128268  0.82560319     0.06800
C1009       C  0.47650613  0.03436601  0.96341068     0.80000
N1010       N  0.46596104  0.02533492  0.96408115    -0.78300
C1011       C  0.45711026  0.02564899  0.97474717     0.82400
N1012       N  0.45889468  0.03516076  0.98468744    -0.78300
C1013       C  0.46917766  0.04443504  0.98391879     0.82500
N1014       N  0.47792702  0.04397454  0.97327393    -0.80000
N1015       N  0.95500757  0.33234576  0.91273290    -0.27500
N1016       N  0.95426309  0.34465297  0.91813259    -0.35400
C1017       C  0.94745989  0.35293462  0.90962304     0.00800
C1018       C  0.94362094  0.34547631  0.89827967     0.06800
C1019       C  0.94855308  0.33241615  0.90060925    -0.06300
H1020       H  0.94513957  0.36350666  0.91176201     0.07500
H1021       H  0.94756164  0.32363436  0.89399929     0.08700
Cu1022     Cu  0.96164936  0.34931908  0.93722254     0.44200
Cu1023     Cu  0.96476910  0.31639389  0.92262576     0.42000
Cu1024     Cu  0.97761430  0.32323820  0.95753393     0.43900
N1025       N  0.96754899  0.35213103  0.95717468    -0.34900
N1026       N  0.97347834  0.34276722  0.96484431    -0.29200
C1027       C  0.97520279  0.34787828  0.97750134    -0.05300
C1028       C  0.96990174  0.36100560  0.97774345     0.06900
C1029       C  0.96521531  0.36331090  0.96465200     0.00700
H1030       H  0.97942421  0.34225659  0.98601101     0.08400
H1031       H  0.96020671  0.37236906  0.96084307     0.07500
N1032       N  0.97976342  0.30479137  0.94716060    -0.36400
N1033       N  0.97518789  0.30245060  0.93468200    -0.28600
C1034       C  0.97840267  0.28964004  0.93107017    -0.03800
C1035       C  0.98534262  0.28347888  0.94175637     0.04800
C1036       C  0.98598391  0.29346392  0.95178909     0.02900
H1037       H  0.97582338  0.28523277  0.92130075     0.08000
H1038       H  0.99069597  0.29267623  0.96172866     0.06800
N1039       N  0.11047108  0.44378471  0.16875170    -0.27500
N1040       N  0.10506598  0.44309199  0.15642873    -0.35400
C1041       C  0.11387499  0.43698993  0.14796238     0.00800
C1042       C  0.12537573  0.43346950  0.15531666     0.06800
C1043       C  0.12284898  0.43792115  0.16849602    -0.06300
H1044       H  0.11169883  0.43453137  0.13743068     0.07500
H1045       H  0.12938829  0.43672949  0.17730469     0.08700
Cu1046     Cu  0.08516962  0.44844189  0.15223919     0.44200
Cu1047     Cu  0.10014880  0.45229638  0.18518967     0.42000
Cu1048     Cu  0.06376945  0.45949996  0.17995115     0.43900
N1049       N  0.06435443  0.45091167  0.15056340    -0.34900
N1050       N  0.05633316  0.45470975  0.16063589    -0.29200
C1051       C  0.04334989  0.45460560  0.15616253    -0.05300
C1052       C  0.04320857  0.45046166  0.14260630     0.06900
C1053       C  0.05677627  0.44825862  0.13948436     0.00700
H1054       H  0.03468199  0.45713829  0.16242232     0.08400
H1055       H  0.06096817  0.44484360  0.12991194     0.07500
N1056       N  0.07459495  0.46444453  0.19756448    -0.36400
N1057       N  0.08773708  0.46207211  0.19932186    -0.28600
C1058       C  0.09165807  0.46727048  0.21140311    -0.03800
C1059       C  0.08046783  0.47313564  0.21763305     0.04800
C1060       C  0.06981959  0.47108349  0.20855713     0.02900
H1061       H  0.10193700  0.46679149  0.21534800     0.08000
H1062       H  0.05942685  0.47450608  0.20966266     0.06800
N1063       N  0.85604777  0.59356462  0.07148562    -0.27500
N1064       N  0.86835018  0.58819422  0.07176443    -0.35400
C1065       C  0.87661195  0.59614636  0.07926341     0.00800
C1066       C  0.86922734  0.60717239  0.08397679     0.06800
C1067       C  0.85619969  0.60524100  0.07875700    -0.06300
H1068       H  0.88717643  0.59386644  0.08133621     0.07500
H1069       H  0.84736295  0.61152447  0.08058063     0.08700
Cu1070     Cu  0.87321937  0.56970159  0.06300872     0.44200
Cu1071     Cu  0.83979660  0.58382329  0.06182891     0.42000
Cu1072     Cu  0.84727449  0.55039196  0.04593684     0.43900
N1073       N  0.87604532  0.55001477  0.05612056    -0.34900
N1074       N  0.86654606  0.54269116  0.04998217    -0.29200
C1075       C  0.87133366  0.52999093  0.04791758    -0.05300
C1076       C  0.88451088  0.52928641  0.05308120     0.06900
C1077       C  0.88709431  0.54226443  0.05813174     0.00700
H1078       H  0.86543797  0.52179349  0.04344488     0.08400
H1079       H  0.89615913  0.54583651  0.06328952     0.07500
N1080       N  0.82880329  0.56057225  0.04438374    -0.36400
N1081       N  0.82598039  0.57225638  0.05051463    -0.28600
C1082       C  0.81310962  0.57579235  0.04748892    -0.03800
C1083       C  0.80761697  0.56601111  0.03889588     0.04800
C1084       C  0.81786269  0.55652218  0.03713692     0.02900
H1085       H  0.80827549  0.58507437  0.05091395     0.08000
H1086       H  0.81741274  0.54732591  0.03105742     0.06800
C1087       C  0.95943779  0.42956128  0.05389733     0.80000
N1088       N  0.94997149  0.43957751  0.05254443    -0.78300
C1089       C  0.94848996  0.44920867  0.06237943     0.82400
N1090       N  0.95688994  0.44900331  0.07339463    -0.78300
C1091       C  0.96658263  0.43925135  0.07476645     0.82500
N1092       N  0.96763977  0.42940415  0.06507887    -0.80000
N1093       N  0.35799899  0.09465224  0.21053803    -0.27500
N1094       N  0.35274706  0.10699143  0.20929483    -0.35400
C1095       C  0.36116502  0.11487963  0.20191927     0.00800
C1096       C  0.37225122  0.10713331  0.19816180     0.06800
C1097       C  0.36989519  0.09430602  0.20374238    -0.06300
H1098       H  0.35913466  0.12538003  0.19915132     0.07500
H1099       H  0.37636691  0.08542684  0.20299376     0.08700
Cu1100     Cu  0.33399302  0.11243094  0.21680315     0.44200
Cu1101     Cu  0.34842327  0.07925513  0.22167164     0.42000
Cu1102     Cu  0.31544841  0.08839856  0.23716678     0.43900
N1103       N  0.31469569  0.11605953  0.22404965    -0.34900
N1104       N  0.30788598  0.10751624  0.23196099    -0.29200
C1105       C  0.29564243  0.11297109  0.23478150    -0.05300
C1106       C  0.29472261  0.12542176  0.22810180     0.06900
C1107       C  0.30696973  0.12701649  0.22140437     0.00700
H1108       H  0.28781571  0.10801533  0.24077319     0.08400
H1109       H  0.31003667  0.13549653  0.21500788     0.07500
N1110       N  0.32483401  0.06949445  0.23919341    -0.36400
N1111       N  0.33660648  0.06619358  0.23360746    -0.28600
C1112       C  0.33942384  0.05311370  0.23669538    -0.03800
C1113       C  0.32891312  0.04782477  0.24457220     0.04800
C1114       C  0.31987416  0.05859078  0.24593684     0.02900
H1115       H  0.34848809  0.04789462  0.23335143     0.08000
H1116       H  0.31026064  0.05854234  0.25126531     0.06800
N1117       N  0.20714043  0.35230520  0.10814630    -0.27500
N1118       N  0.20761920  0.34790523  0.12086313    -0.35400
C1119       C  0.20073022  0.35652853  0.12888958     0.00800
C1120       C  0.19546936  0.36687424  0.12085052     0.06800
C1121       C  0.19971334  0.36384686  0.10770272    -0.06300
H1122       H  0.19907686  0.35496119  0.13968032     0.07500
H1123       H  0.19744026  0.36950053  0.09849252     0.08700
Cu1124     Cu  0.21576729  0.32932831  0.12631131     0.44200
Cu1125     Cu  0.21642749  0.34158616  0.09241346     0.42000
Cu1126     Cu  0.22856961  0.30661395  0.10039475     0.43900
N1127       N  0.22056762  0.30917577  0.12988567    -0.34900
N1128       N  0.22537761  0.30065776  0.12065164    -0.29200
C1129       C  0.22674239  0.28821838  0.12646178    -0.05300
C1130       C  0.22232640  0.28902973  0.13987255     0.06900
C1131       C  0.21850196  0.30244829  0.14162371     0.00700
H1132       H  0.23012153  0.27915994  0.12118259     0.08400
H1133       H  0.21429445  0.30697995  0.15072809     0.07500
N1134       N  0.23062545  0.31626905  0.08142922    -0.36400
N1135       N  0.22662439  0.32891653  0.07882403    -0.28600
C1136       C  0.23021565  0.33225399  0.06601887    -0.03800
C1137       C  0.23664918  0.32118824  0.06014170     0.04800
C1138       C  0.23666655  0.31120567  0.07020173     0.02900
H1139       H  0.22821376  0.34204619  0.06131291     0.08000
H1140       H  0.24110941  0.30113641  0.06955230     0.06800
N1141       N  0.10189102  0.19305833  0.37021099    -0.27500
N1142       N  0.11439817  0.19429402  0.36550198    -0.35400
C1143       C  0.12294140  0.18725601  0.37352003     0.00800
C1144       C  0.11550718  0.18116586  0.38388973     0.06800
C1145       C  0.10214104  0.18515079  0.38145557    -0.06300
H1146       H  0.13372201  0.18637884  0.37157970     0.07500
H1147       H  0.09317309  0.18220669  0.38712604     0.08700
Cu1148     Cu  0.11919579  0.20401118  0.34751014     0.44200
Cu1149     Cu  0.08531373  0.20163638  0.36023017     0.42000
Cu1150     Cu  0.09216596  0.21605797  0.32605262     0.43900
N1151       N  0.12215511  0.21052984  0.32777043    -0.34900
N1152       N  0.11231469  0.21462246  0.31955392    -0.29200
C1153       C  0.11761702  0.21690605  0.30708516    -0.05300
C1154       C  0.13148766  0.21410064  0.30753866     0.06900
C1155       C  0.13390419  0.21010260  0.32087460     0.00700
H1156       H  0.11174168  0.22012523  0.29832246     0.08400
H1157       H  0.14337228  0.20652229  0.32520810     0.07500
N1158       N  0.07336094  0.21665753  0.33589366    -0.36400
N1159       N  0.07096414  0.21146602  0.34812033    -0.28600
C1160       C  0.05800262  0.21406860  0.35158533    -0.03800
C1161       C  0.05183311  0.22129771  0.34108819     0.04800
C1162       C  0.06194751  0.22270434  0.33130249     0.02900
H1163       H  0.05357829  0.21117922  0.36125021     0.08000
H1164       H  0.06120740  0.22790648  0.32160299     0.06800
C1165       C  0.21258562  0.21664769  0.21301175     0.80000
N1166       N  0.22138235  0.20601230  0.21341608    -0.78300
C1167       C  0.22058345  0.19640443  0.22337765     0.82400
N1168       N  0.21063587  0.19737955  0.23291788    -0.78300
C1169       C  0.20164911  0.20792271  0.23263905     0.82500
N1170       N  0.20275600  0.21758720  0.22269725    -0.80000
N1171       N  0.16461725  0.09733646  0.46265766    -0.27500
N1172       N  0.15300862  0.09083456  0.46070835    -0.35400
C1173       C  0.14459267  0.09862245  0.45331647     0.00800
C1174       C  0.15113641  0.11080645  0.45033512     0.06800
C1175       C  0.16389258  0.10961942  0.45646569    -0.06300
H1176       H  0.13460129  0.09532442  0.45005059     0.07500
H1177       H  0.17212255  0.11697664  0.45627455     0.08700
Cu1178     Cu  0.14939372  0.07124723  0.46701142     0.44200
Cu1179     Cu  0.18052104  0.08812826  0.47327817     0.42000
Cu1180     Cu  0.17580666  0.05086123  0.48099781     0.43900
N1181       N  0.14698729  0.05095199  0.47133551    -0.34900
N1182       N  0.15666107  0.04298603  0.47617726    -0.29200
C1183       C  0.15159237  0.03022293  0.47749496    -0.05300
C1184       C  0.13804246  0.03033385  0.47332287     0.06900
C1185       C  0.13559459  0.04367610  0.46945183     0.00700
H1186       H  0.15727382  0.02160816  0.48137563     0.08400
H1187       H  0.12628529  0.04787504  0.46533969     0.07500
N1188       N  0.19261005  0.06269164  0.48660899    -0.36400
N1189       N  0.19408666  0.07593760  0.48420031    -0.28600
C1190       C  0.20575326  0.08026607  0.48999250    -0.03800
C1191       C  0.21200594  0.06926456  0.49628008     0.04800
C1192       C  0.20337827  0.05829444  0.49387331     0.02900
H1193       H  0.20945603  0.09067264  0.48951480     0.08000
H1194       H  0.20465256  0.04789972  0.49738910     0.06800
N1195       N  0.90233843  0.94509619  0.36145112    -0.27500
N1196       N  0.90920536  0.94194660  0.37258964    -0.35400
C1197       C  0.90140822  0.93418769  0.38072870     0.00800
C1198       C  0.88889587  0.93224641  0.37447422     0.06800
C1199       C  0.88988424  0.93932207  0.36219194    -0.06300
H1200       H  0.90479953  0.93008849  0.39039254     0.07500
H1201       H  0.88215910  0.94025740  0.35437666     0.08700
Cu1202     Cu  0.92895693  0.94803057  0.37623320     0.44200
Cu1203     Cu  0.91083872  0.95715345  0.34614857     0.42000
Cu1204     Cu  0.94558830  0.97080006  0.35312365     0.43900
N1205       N  0.94865530  0.95476341  0.37891038    -0.34900
N1206       N  0.95486010  0.96352650  0.37075366    -0.29200
C1207       C  0.96754270  0.96581107  0.37554576    -0.05300
C1208       C  0.96936207  0.95791207  0.38716935     0.06900
C1209       C  0.95715813  0.95108807  0.38895744     0.00700
H1210       H  0.97497208  0.97241888  0.37073897     0.08400
H1211       H  0.95456347  0.94402292  0.39704579     0.07500
N1212       N  0.93438147  0.97441080  0.33547233    -0.36400
N1213       N  0.92208672  0.96944855  0.33293288    -0.28600
C1214       C  0.91822241  0.97340481  0.32037938    -0.03800
C1215       C  0.92854948  0.98123350  0.31465003     0.04800
C1216       C  0.93861542  0.98162933  0.32459367     0.02900
H1217       H  0.90862651  0.97055180  0.31576069     0.08000
H1218       H  0.94841547  0.98664839  0.32400691     0.06800
N1219       N  0.06962309  0.83882187  0.61283767    -0.27500
N1220       N  0.07581346  0.84675793  0.60386025    -0.35400
C1221       C  0.08583250  0.85373223  0.61005668     0.00800
C1222       C  0.08603495  0.85013404  0.62369182     0.06800
C1223       C  0.07555580  0.84066387  0.62512722    -0.06300
H1224       H  0.09230665  0.86111722  0.60500069     0.07500
H1225       H  0.07261355  0.83534953  0.63434506     0.08700
Cu1226     Cu  0.06992116  0.84883669  0.58379406     0.44200
Cu1227     Cu  0.05367067  0.82577732  0.60725989     0.42000
Cu1228     Cu  0.03999296  0.83170986  0.57253871     0.43900
N1229       N  0.06057086  0.85320133  0.56548860    -0.34900
N1230       N  0.04908009  0.84745323  0.56143497    -0.29200
C1231       C  0.04498764  0.85355356  0.54979099    -0.05300
C1232       C  0.05448806  0.86352794  0.54636130     0.06900
C1233       C  0.06419927  0.86295460  0.55657631     0.00700
H1234       H  0.03578721  0.85095407  0.54427851     0.08400
H1235       H  0.07298728  0.86953741  0.55779232     0.07500
N1236       N  0.03430508  0.81557150  0.58526051    -0.36400
N1237       N  0.03915244  0.81337912  0.59767205    -0.28600
C1238       C  0.03381859  0.80162925  0.60250553    -0.03800
C1239       C  0.02519417  0.79608119  0.59269170     0.04800
C1240       C  0.02580156  0.80530292  0.58192772     0.02900
H1241       H  0.03632006  0.79733623  0.61235663     0.08000
H1242       H  0.02079386  0.80447029  0.57213821     0.06800
C1243       C  0.05540013  0.93723958  0.47412444     0.80000
N1244       N  0.04541889  0.93872955  0.46461509    -0.78300
C1245       C  0.04603426  0.94901769  0.45527714     0.82400
N1246       N  0.05674154  0.95783778  0.45554365    -0.78300
C1247       C  0.06673873  0.95652349  0.46504180     0.82500
N1248       N  0.06599041  0.94619191  0.47425112    -0.80000
C1249       C  0.04181647  0.88775777  0.51887544    -0.11100
C1250       C  0.05408183  0.89358426  0.51422850     0.06000
C1251       C  0.06641216  0.88884098  0.51974519    -0.09900
C1252       C  0.06648074  0.87891828  0.52997208    -0.11500
C1253       C  0.05423947  0.87333710  0.53484825    -0.01300
C1254       C  0.04190157  0.87767693  0.52904705    -0.10400
C1255       C  0.05413161  0.90481836  0.50397066     0.06100
H1256       H  0.07605962  0.89282769  0.51617317     0.08000
H1257       H  0.07616837  0.87560998  0.53406893     0.11500
H1258       H  0.03230730  0.87362041  0.53268188     0.11700
H1259       H  0.03213373  0.89126418  0.51494034     0.08000
C1260       C  0.04495239  0.90485841  0.49293932    -0.11100
C1261       C  0.04525488  0.91540928  0.48326823    -0.10400
C1262       C  0.05477973  0.92611352  0.48439938    -0.01300
C1263       C  0.06386401  0.92610038  0.49548919    -0.11500
C1264       C  0.06350383  0.91564085  0.50516100    -0.09900
H1265       H  0.03769017  0.89661486  0.49164661     0.08000
H1266       H  0.03813947  0.91508697  0.47482676     0.11700
H1267       H  0.07124910  0.93423836  0.49678126     0.11400
H1268       H  0.07051728  0.91611993  0.51367875     0.08000
C1269       C  0.99483690  0.94331295  0.41202151    -0.11100
C1270       C  0.00335403  0.95457746  0.41466759     0.06000
C1271       C  0.00112572  0.96679189  0.40738445    -0.09900
C1272       C  0.99036724  0.96779542  0.39802506    -0.11500
C1273       C  0.98153685  0.95668443  0.39595141    -0.01300
C1274       C  0.98400658  0.94439625  0.40288815    -0.10400
C1275       C  0.01425947  0.95353223  0.42520100     0.06100
H1276       H  0.00741212  0.97570839  0.40921218     0.08000
H1277       H  0.98863968  0.97739897  0.39281998     0.11500
H1278       H  0.97753245  0.93556883  0.40126369     0.11700
H1279       H  0.99648961  0.93361143  0.41705749     0.08000
C1280       C  0.01218955  0.94559461  0.43700485    -0.11100
C1281       C  0.02249547  0.94411435  0.44671163    -0.10400
C1282       C  0.03508243  0.95071152  0.44500182    -0.01300
C1283       C  0.03708563  0.95893303  0.43339286    -0.11500
C1284       C  0.02681862  0.96027055  0.42356697    -0.09900
H1285       H  0.00253441  0.94056349  0.43883011     0.08000
H1286       H  0.02054185  0.93787587  0.45562895     0.11700
H1287       H  0.04668581  0.96414753  0.43176366     0.11400
H1288       H  0.02883989  0.96635524  0.41456644     0.08000
C1289       C  0.10461692  0.01129963  0.47050073    -0.11100
C1290       C  0.10882442  0.99763973  0.47020129     0.06000
C1291       C  0.12274782  0.99467523  0.47164301    -0.09900
C1292       C  0.13231194  0.00525258  0.47293793    -0.11500
C1293       C  0.12808605  0.01894560  0.47283271    -0.01300
C1294       C  0.11410877  0.02180787  0.47181943    -0.10400
C1295       C  0.09859036  0.98664803  0.46832440     0.06100
H1296       H  0.12625625  0.98420963  0.47142553     0.08000
H1297       H  0.14299869  0.00271570  0.47368214     0.11500
H1298       H  0.11040932  0.03219048  0.47205231     0.11700
H1299       H  0.09392749  0.01387056  0.46976683     0.08000
C1300       C  0.09895579  0.97478984  0.47637246    -0.11100
C1301       C  0.08872824  0.96489551  0.47516255    -0.10400
C1302       C  0.07797448  0.96663056  0.46581557    -0.01300
C1303       C  0.07786324  0.97832500  0.45749353    -0.11500
C1304       C  0.08803991  0.98822695  0.45875711    -0.09900
H1305       H  0.10692679  0.97335952  0.48387966     0.08000
H1306       H  0.08916144  0.95597960  0.48169520     0.11700
H1307       H  0.06979050  0.97996800  0.45014298     0.11400
H1308       H  0.08762888  0.99718384  0.45227386     0.08000
C1309       C  0.13919799  0.15815292  0.40406337    -0.11100
C1310       C  0.13057392  0.15298555  0.41424297     0.06000
C1311       C  0.11696945  0.15740111  0.41455884    -0.09900
C1312       C  0.11208465  0.16662474  0.40481383    -0.11500
C1313       C  0.12069904  0.17169181  0.39454400    -0.01300
C1314       C  0.13434708  0.16739721  0.39437946    -0.10400
C1315       C  0.13566805  0.14266454  0.42413870     0.06100
H1316       H  0.11008923  0.15377404  0.42238290     0.08000
H1317       H  0.10155505  0.16974051  0.40537154     0.11500
H1318       H  0.14133721  0.17094179  0.38664817     0.11700
H1319       H  0.14965355  0.15479018  0.40334208     0.08000
C1320       C  0.12729972  0.13175435  0.42820400    -0.11100
C1321       C  0.13224824  0.12163664  0.43690872    -0.10400
C1322       C  0.14575630  0.12206789  0.44171765    -0.01300
C1323       C  0.15406090  0.13313164  0.43787957    -0.11500
C1324       C  0.14906680  0.14332266  0.42921074    -0.09900
H1325       H  0.11699652  0.13080379  0.42437054     0.08000
H1326       H  0.12543042  0.11341178  0.43967544     0.11700
H1327       H  0.16447635  0.13387953  0.44139910     0.11400
H1328       H  0.15572387  0.15171706  0.42646223     0.08000
C1329       C  0.16499849  0.21233951  0.28854107    -0.11100
C1330       C  0.16076998  0.21266183  0.27487605     0.06000
C1331       C  0.14683769  0.21411895  0.27194836    -0.09900
C1332       C  0.13729496  0.21484673  0.28251726    -0.11500
C1333       C  0.14151695  0.21420075  0.29621689    -0.01300
C1334       C  0.15551633  0.21315098  0.29906765    -0.10400
C1335       C  0.17093390  0.21126142  0.26380433     0.06100
H1336       H  0.14330301  0.21433756  0.26148738     0.08000
H1337       H  0.12661484  0.21560584  0.27992118     0.11500
H1338       H  0.15923380  0.21290269  0.30944694     0.11700
H1339       H  0.17569574  0.21149204  0.29109494     0.08000
C1340       C  0.17071623  0.21998529  0.25242612    -0.11100
C1341       C  0.18066682  0.21891902  0.24229389    -0.10400
C1342       C  0.19095613  0.20899648  0.24325835    -0.01300
C1343       C  0.19099178  0.20013006  0.25455559    -0.11500
C1344       C  0.18113712  0.20128912  0.26472239    -0.09900
H1345       H  0.16301239  0.22781700  0.25151300     0.08000
H1346       H  0.18030343  0.22589247  0.23372345     0.11700
H1347       H  0.19871903  0.19234554  0.25564017     0.11400
H1348       H  0.18145101  0.19432372  0.27330698     0.08000
C1349       C  0.20807097  0.26753647  0.16853089    -0.11100
C1350       C  0.21843155  0.25788378  0.17069765     0.06000
C1351       C  0.23000792  0.25838150  0.16222343    -0.09900
C1352       C  0.23113830  0.26823229  0.15189408    -0.11500
C1353       C  0.22090084  0.27799482  0.15006356    -0.01300
C1354       C  0.20938090  0.27755842  0.15846951    -0.10400
C1355       C  0.21706538  0.24735275  0.18167073     0.06100
H1356       H  0.23833109  0.25132434  0.16369354     0.08000
H1357       H  0.24018696  0.26849092  0.14561756     0.11500
H1358       H  0.20127497  0.28491162  0.15714548     0.11700
H1359       H  0.19884158  0.26731821  0.17451890     0.08000
C1360       C  0.21000965  0.25023691  0.19382010    -0.11100
C1361       C  0.20837595  0.24024481  0.20391052    -0.10400
C1362       C  0.21398891  0.22719850  0.20224428    -0.01300
C1363       C  0.22120317  0.22434294  0.19023661    -0.11500
C1364       C  0.22262664  0.23423964  0.18004277    -0.09900
H1365       H  0.20585207  0.26028025  0.19565476     0.08000
H1366       H  0.20291108  0.24281623  0.21312111     0.11700
H1367       H  0.22559574  0.21435413  0.18860403     0.11400
H1368       H  0.22789073  0.23148413  0.17078081     0.08000
C1369       C  0.26917795  0.15064360  0.21444903    -0.11100
C1370       C  0.26174052  0.15406484  0.22619523     0.06000
C1371       C  0.26491547  0.14738748  0.23853818    -0.09900
C1372       C  0.27537315  0.13771884  0.23911558    -0.11500
C1373       C  0.28304757  0.13480334  0.22745847    -0.01300
C1374       C  0.27982184  0.14128851  0.21512812    -0.10400
C1375       C  0.25102754  0.16480516  0.22554200     0.06100
H1376       H  0.25958108  0.14986478  0.24784087     0.08000
H1377       H  0.27778056  0.13287829  0.24875710     0.11500
H1378       H  0.28549078  0.13903229  0.20595421     0.11700
H1379       H  0.26680896  0.15519344  0.20466970     0.08000
C1380       C  0.25247143  0.17596434  0.21659566    -0.11100
C1381       C  0.24250661  0.18603338  0.21580113    -0.10400
C1382       C  0.23089557  0.18540347  0.22410388    -0.01300
C1383       C  0.22943429  0.17434259  0.23315353    -0.11500
C1384       C  0.23935084  0.16411977  0.23381306    -0.09900
H1385       H  0.26144428  0.17710835  0.21031790     0.08000
H1386       H  0.24405419  0.19445719  0.20879796     0.11700
H1387       H  0.22058430  0.17352265  0.23966323     0.11400
H1388       H  0.23776040  0.15560722  0.24068702     0.08000
C1389       C  0.89855628  0.49334496  0.04888402    -0.11100
C1390       C  0.91060997  0.49405050  0.05660775     0.06000
C1391       C  0.91409306  0.50645605  0.06288876    -0.09900
C1392       C  0.90569296  0.51783637  0.06163688    -0.11500
C1393       C  0.89354358  0.51716348  0.05404795    -0.01300
C1394       C  0.89009892  0.50477187  0.04763688    -0.10400
C1395       C  0.91963264  0.48199706  0.05817281     0.06100
H1396       H  0.92342918  0.50742403  0.06870395     0.08000
H1397       H  0.90877671  0.52710922  0.06675717     0.11500
H1398       H  0.88087468  0.50384432  0.04166567     0.11700
H1399       H  0.89555576  0.48389870  0.04398388     0.08000
C1400       C  0.92591695  0.47928306  0.07077002    -0.11100
C1401       C  0.93511269  0.46854210  0.07213593    -0.10400
C1402       C  0.93820505  0.46016442  0.06096033    -0.01300
C1403       C  0.93161352  0.46259309  0.04844634    -0.11500
C1404       C  0.92243592  0.47341779  0.04706245    -0.09900
H1405       H  0.92375583  0.48551843  0.07960073     0.08000
H1406       H  0.93985332  0.46685608  0.08197157     0.11700
H1407       H  0.93377807  0.45633692  0.03963216     0.11400
H1408       H  0.91783881  0.47531212  0.03719843     0.08000
C1409       C  0.15135686  0.41739620  0.13184405    -0.11100
C1410       C  0.15748103  0.40761940  0.14041906     0.06000
C1411       C  0.15334128  0.40701706  0.15415764    -0.09900
C1412       C  0.14330795  0.41578249  0.15911128    -0.11500
C1413       C  0.13691330  0.42515548  0.15040003    -0.01300
C1414       C  0.14109334  0.42594633  0.13674358    -0.10400
C1415       C  0.16779585  0.39781844  0.13503883     0.06100
H1416       H  0.15752034  0.39947918  0.16105695     0.08000
H1417       H  0.14016033  0.41482469  0.16963970     0.11500
H1418       H  0.13641304  0.43319426  0.12983844     0.11700
H1419       H  0.15444185  0.41845330  0.12131428     0.08000
C1420       C  0.16712471  0.39307060  0.12148941    -0.11100
C1421       C  0.17638828  0.38336353  0.11671079    -0.10400
C1422       C  0.18636793  0.37797461  0.12542867    -0.01300
C1423       C  0.18721627  0.38283221  0.13885672    -0.11500
C1424       C  0.17816393  0.39272379  0.14355505    -0.09900
H1425       H  0.15918700  0.39650624  0.11464705     0.08000
H1426       H  0.17541069  0.37970597  0.10634522     0.11700
H1427       H  0.19493747  0.37900653  0.14575613     0.11400
H1428       H  0.17932468  0.39634610  0.15390603     0.08000
C1429       C  0.98781295  0.45321514  0.10399458    -0.11100
C1430       C  0.99727269  0.44268832  0.10604675     0.06000
C1431       C  0.99601800  0.43067336  0.09830628    -0.09900
C1432       C  0.98585469  0.42940887  0.08839043    -0.11500
C1433       C  0.97666509  0.44011454  0.08601606    -0.01300
C1434       C  0.97761164  0.45193766  0.09410613    -0.10400
C1435       C  0.00885225  0.44449736  0.11566023     0.06100
H1436       H  0.00300828  0.42228160  0.09982530     0.08000
H1437       H  0.98532663  0.42010812  0.08245610     0.11500
H1438       H  0.97072072  0.46040298  0.09254141     0.11700
H1439       H  0.98858893  0.46264404  0.10969758     0.08000
C1440       C  0.02192400  0.44019416  0.11192416    -0.11100
C1441       C  0.03297654  0.44211204  0.12067189    -0.10400
C1442       C  0.03129468  0.44840701  0.13343138    -0.01300
C1443       C  0.01818504  0.45268732  0.13721615    -0.11500
C1444       C  0.00708866  0.45078736  0.12840451    -0.09900
H1445       H  0.02367401  0.43552677  0.10208906     0.08000
H1446       H  0.04282719  0.43859126  0.11733784     0.11700
H1447       H  0.01647000  0.45759600  0.14692393     0.11400
H1448       H  0.99710997  0.45414670  0.13160013     0.08000
C1449       C  0.95605963  0.38875091  0.00046250    -0.11100
C1450       C  0.96567370  0.38923273  0.01109657     0.06000
C1451       C  0.97651837  0.37984502  0.01092633    -0.09900
C1452       C  0.97778941  0.37041034  0.00027000    -0.11500
C1453       C  0.96838771  0.37034549  0.98947426    -0.01300
C1454       C  0.95747723  0.37954302  0.98975092    -0.10400
C1455       C  0.96435464  0.39960953  0.02213788     0.06100
H1456       H  0.98421061  0.37997464  0.01884004     0.08000
H1457       H  0.98632193  0.36344659  0.00027067     0.11500
H1458       H  0.94988589  0.37953798  0.98173342     0.11700
H1459       H  0.94732588  0.39544811  0.00041073     0.08000
C1460       C  0.95887184  0.41257816  0.01927760    -0.11100
C1461       C  0.95715673  0.42220124  0.02960820    -0.10400
C1462       C  0.96116315  0.41925360  0.04302786    -0.01300
C1463       C  0.96690809  0.40644424  0.04591055    -0.11500
C1464       C  0.96838021  0.39668514  0.03560961    -0.09900
H1465       H  0.95600343  0.41540407  0.00899776     0.08000
H1466       H  0.95288689  0.43205870  0.02702964     0.11700
H1467       H  0.97003534  0.40387108  0.05619079     0.11400
H1468       H  0.97245238  0.38677778  0.03827728     0.08000
C1469       C  0.51072263  0.03577460  0.94593658    -0.11100
C1470       C  0.50778111  0.03043256  0.93294330     0.06000
C1471       C  0.49428356  0.02642091  0.93005756    -0.09900
C1472       C  0.48408845  0.02758832  0.93994529    -0.11500
C1473       C  0.48710301  0.03307006  0.95281684    -0.01300
C1474       C  0.50049946  0.03722330  0.95566202    -0.10400
C1475       C  0.51880221  0.02899927  0.92258647     0.06100
H1476       H  0.49152724  0.02250234  0.92011780     0.08000
H1477       H  0.47381234  0.02439664  0.93746235     0.11500
H1478       H  0.50317320  0.04131809  0.96556673     0.11700
H1479       H  0.52099628  0.03864220  0.94875116     0.08000
C1480       C  0.52975280  0.03831285  0.92226385    -0.11100
C1481       C  0.54038580  0.03669955  0.91300532    -0.10400
C1482       C  0.54024261  0.02590977  0.90360523    -0.01300
C1483       C  0.52920336  0.01677165  0.90362796    -0.11500
C1484       C  0.51866208  0.01821715  0.91309398    -0.09900
H1485       H  0.53010366  0.04697376  0.92909009     0.08000
H1486       H  0.54863190  0.04406562  0.91308422     0.11700
H1487       H  0.52888410  0.00830115  0.89655627     0.11400
H1488       H  0.51056890  0.01069127  0.91313583     0.08000
C1489       C  0.42065738  0.96947027  0.97983016    -0.11100
C1490       C  0.41656751  0.98300419  0.98202962     0.06000
C1491       C  0.40328421  0.98540977  0.98675672    -0.09900
C1492       C  0.39423288  0.97452257  0.98895640    -0.11500
C1493       C  0.39827195  0.96098538  0.98649150    -0.01300
C1494       C  0.41166787  0.95862668  0.98206033    -0.10400
C1495       C  0.42629043  0.99445175  0.97961097     0.06100
H1496       H  0.39980014  0.99573283  0.98850501     0.08000
H1497       H  0.38402077  0.97677394  0.99234570     0.11500
H1498       H  0.41532107  0.94838983  0.98028006     0.11700
H1499       H  0.43091238  0.96722471  0.97652418     0.08000
C1500       C  0.42713219  0.00543773  0.98876101    -0.11100
C1501       C  0.43694080  0.01568340  0.98701371    -0.10400
C1502       C  0.44614271  0.01522124  0.97604869    -0.01300
C1503       C  0.44500138  0.00446147  0.96664224    -0.11500
C1504       C  0.43520625  0.99420120  0.96841215    -0.09900
H1505       H  0.42049385  0.00589277  0.99753865     0.08000
H1506       H  0.43745491  0.02384217  0.99443149     0.11700
H1507       H  0.45182545  0.00381557  0.95802160     0.11400
H1508       H  0.43465948  0.98600447  0.96103588     0.08000
C1509       C  0.39842359  0.12990337  0.18126506    -0.11100
C1510       C  0.40431193  0.12103244  0.17170933     0.06000
C1511       C  0.39993120  0.10730931  0.17142497    -0.09900
C1512       C  0.38982980  0.10265135  0.18033474    -0.11500
C1513       C  0.38369513  0.11167042  0.18951585    -0.01300
C1514       C  0.38813987  0.12530405  0.18996234    -0.10400
C1515       C  0.41463923  0.12614023  0.16180721     0.06100
H1516       H  0.40400997  0.10022087  0.16405331     0.08000
H1517       H  0.38646652  0.09212578  0.17969597     0.11500
H1518       H  0.38367562  0.13242329  0.19708623     0.11700
H1519       H  0.40172879  0.14043151  0.18203014     0.08000
C1520       C  0.41382217  0.13946504  0.15641982    -0.11100
C1521       C  0.42307899  0.14397563  0.14656082    -0.10400
C1522       C  0.43322546  0.13520207  0.14171960    -0.01300
C1523       C  0.43427391  0.12203292  0.14731988    -0.11500
C1524       C  0.42516179  0.11758874  0.15729918    -0.09900
H1525       H  0.40575728  0.14629654  0.15946684     0.08000
H1526       H  0.42196394  0.15414866  0.14237468     0.11700
H1527       H  0.44215410  0.11511471  0.14398850     0.11400
H1528       H  0.42636500  0.10741398  0.16144972     0.08000
C1529       C  0.46609217  0.08559837  0.03683269    -0.11100
C1530       C  0.47561781  0.08523630  0.02617523     0.06000
C1531       C  0.48593695  0.09527847  0.02585372    -0.09900
C1532       C  0.48664369  0.10540680  0.03591249    -0.11500
C1533       C  0.47719090  0.10557280  0.04661391    -0.01300
C1534       C  0.46693087  0.09554823  0.04694684    -0.10400
C1535       C  0.47452294  0.07457038  0.01538205     0.06100
H1536       H  0.49357969  0.09524142  0.01793193     0.08000
H1537       H  0.49471273  0.11295427  0.03544391     0.11500
H1538       H  0.45930488  0.09552420  0.05488301     0.11700
H1539       H  0.45776560  0.07834367  0.03726479     0.08000
C1540       C  0.46951321  0.06142480  0.01850171    -0.11100
C1541       C  0.46765224  0.05168589  0.00826653    -0.10400
C1542       C  0.47109422  0.05472511  0.99473386    -0.01300
C1543       C  0.47647455  0.06765830  0.99161320    -0.11500
C1544       C  0.47803788  0.07752438  0.00179013    -0.09900
H1545       H  0.46704089  0.05860411  0.02887809     0.08000
H1546       H  0.46369606  0.04170074  0.01096719     0.11700
H1547       H  0.47915773  0.07025906  0.98122234     0.11400
H1548       H  0.48170200  0.08755896  0.99891554     0.08000
C1549       C  0.40231313  0.83537972  0.91123115    -0.11100
C1550       C  0.38918834  0.83370336  0.91678770     0.06000
C1551       C  0.38099776  0.82293899  0.91191948    -0.09900
C1552       C  0.38561686  0.81438172  0.90154258    -0.11500
C1553       C  0.39863526  0.81618463  0.89594108    -0.01300
C1554       C  0.40702821  0.82662775  0.90102474    -0.10400
C1555       C  0.38398062  0.84327087  0.92739496     0.06100
H1556       H  0.37099516  0.82107037  0.91613480     0.08000
H1557       H  0.37899858  0.80628314  0.89793483     0.11500
H1558       H  0.41705624  0.82833066  0.89678215     0.11700
H1559       H  0.40885359  0.84367586  0.91449381     0.08000
C1560       C  0.39287905  0.84912384  0.93701933    -0.11100
C1561       C  0.38814525  0.85857182  0.94653257    -0.10400
C1562       C  0.37435454  0.86230322  0.94681946    -0.01300
C1563       C  0.36533651  0.85617637  0.93752863    -0.11500
C1564       C  0.37010616  0.84685663  0.92785807    -0.09900
H1565       H  0.40353724  0.84639187  0.93726125     0.08000
H1566       H  0.39532593  0.86293330  0.95370708     0.11700
H1567       H  0.35467801  0.85892825  0.93741409     0.11400
H1568       H  0.36295010  0.84277249  0.92050501     0.08000
C1569       C  0.35835947  0.79149134  0.78333651    -0.11100
C1570       C  0.35613493  0.78089958  0.77391516     0.06000
C1571       C  0.36347787  0.76865658  0.77554084    -0.09900
C1572       C  0.37265783  0.76704239  0.78639782    -0.11500
C1573       C  0.37447691  0.77752536  0.79597256    -0.01300
C1574       C  0.36729147  0.78977154  0.79427711    -0.10400
C1575       C  0.34616307  0.78273003  0.76254759     0.06100
H1576       H  0.36194521  0.76020883  0.76860119     0.08000
H1577       H  0.37804325  0.75747691  0.78752589     0.11500
H1578       H  0.36869500  0.79813909  0.80134841     0.11700
H1579       H  0.35326798  0.80121337  0.78223459     0.08000
C1580       C  0.33435826  0.79060920  0.76445242    -0.11100
C1581       C  0.32528082  0.79289549  0.75370902    -0.10400
C1582       C  0.32759249  0.78712076  0.74084993    -0.01300
C1583       C  0.33916798  0.77896333  0.73896597    -0.11500
C1584       C  0.34840883  0.77688056  0.74965637    -0.09900
H1585       H  0.33204234  0.79497565  0.77429843     0.08000
H1586       H  0.31633375  0.79904637  0.75552886     0.11700
H1587       H  0.34123152  0.77441863  0.72913407     0.11400
H1588       H  0.35744401  0.77091583  0.74771630     0.08000
C1589       C  0.30726365  0.72875851  0.66786004    -0.11100
C1590       C  0.29763595  0.73921555  0.66944975     0.06000
C1591       C  0.28558651  0.73864872  0.66162480    -0.09900
C1592       C  0.28317238  0.72774769  0.65265414    -0.11500
C1593       C  0.29264212  0.71711700  0.65153658    -0.01300
C1594       C  0.30473148  0.71780402  0.65915106    -0.10400
C1595       C  0.30014350  0.75038202  0.67949253     0.06100
H1596       H  0.27787081  0.74643155  0.66266724     0.08000
H1597       H  0.27375103  0.72741401  0.64690870     0.11500
H1598       H  0.31235144  0.70989777  0.65827839     0.11700
H1599       H  0.31683392  0.72901446  0.67334309     0.08000
C1600       C  0.30705208  0.74761986  0.69177767    -0.11100
C1601       C  0.30962476  0.75797146  0.70120826    -0.10400
C1602       C  0.30514453  0.77134704  0.69876260    -0.01300
C1603       C  0.29816168  0.77417050  0.68654534    -0.11500
C1604       C  0.29575070  0.76382023  0.67698198    -0.09900
H1605       H  0.31030551  0.73736449  0.69426883     0.08000
H1606       H  0.31487944  0.75540016  0.71057910     0.11700
H1607       H  0.29462888  0.78440318  0.68433209     0.11400
H1608       H  0.29057859  0.76638889  0.66757093     0.08000
C1609       C  0.13781887  0.86646588  0.66306824    -0.11100
C1610       C  0.12427220  0.87085255  0.66374205     0.06000
C1611       C  0.12070663  0.88063258  0.67356118    -0.09900
C1612       C  0.13066035  0.88628461  0.68218212    -0.11500
C1613       C  0.14433309  0.88215960  0.68121484    -0.01300
C1614       C  0.14769440  0.87200784  0.67167603    -0.10400
C1615       C  0.11420934  0.86566883  0.65367068     0.06100
H1616       H  0.11032127  0.88421450  0.67426771     0.08000
H1617       H  0.12765127  0.89397341  0.68946730     0.11500
H1618       H  0.15802535  0.86846876  0.67053938     0.11700
H1619       H  0.14082223  0.85880096  0.65573128     0.08000
C1620       C  0.11777238  0.86500525  0.63983632    -0.11100
C1621       C  0.10859733  0.85996485  0.63019988    -0.10400
C1622       C  0.09565100  0.85532315  0.63415058    -0.01300
C1623       C  0.09203602  0.85593211  0.64799454    -0.11500
C1624       C  0.10120134  0.86119304  0.65766764    -0.09900
H1625       H  0.12767013  0.86850851  0.63643932     0.08000
H1626       H  0.11174335  0.85955278  0.61964234     0.11700
H1627       H  0.08208441  0.85251931  0.65130301     0.11400
H1628       H  0.09822538  0.86155681  0.66828164     0.08000
C1629       C  0.26308055  0.85830280  0.72971505    -0.11100
C1630       C  0.26648894  0.85103692  0.71783817     0.06000
C1631       C  0.26068358  0.85509385  0.70536643    -0.09900
C1632       C  0.25100670  0.86545205  0.70490190    -0.11500
C1633       C  0.24703893  0.87217682  0.71685257    -0.01300
C1634       C  0.25348089  0.86884834  0.72920682    -0.10400
C1635       C  0.27538352  0.83877644  0.71842210     0.06100
H1636       H  0.26339835  0.85004232  0.69595716     0.08000
H1637       H  0.24640334  0.86801377  0.69518910     0.11500
H1638       H  0.25056650  0.87386673  0.73857357     0.11700
H1639       H  0.26732945  0.85542653  0.73949523     0.08000
C1640       C  0.28673120  0.83819311  0.72716914    -0.11100
C1641       C  0.29498219  0.82655453  0.72752601    -0.10400
C1642       C  0.29209675  0.81530066  0.71908385    -0.01300
C1643       C  0.28068009  0.81586105  0.71046720    -0.11500
C1644       C  0.27240089  0.82739131  0.71020330    -0.09900
H1645       H  0.28936059  0.84680217  0.73357780     0.08000
H1646       H  0.30371999  0.82645005  0.73427259     0.11700
H1647       H  0.27803503  0.80731870  0.70397042     0.11400
H1648       H  0.26353334  0.82730381  0.70363121     0.08000
C1649       C  0.36619688  0.58044355  0.63952802    -0.11100
C1650       C  0.35874702  0.58947706  0.64775713     0.06000
C1651       C  0.36241778  0.59070894  0.66161191    -0.09900
C1652       C  0.37339185  0.58336828  0.66696860    -0.11500
C1653       C  0.38114333  0.57489698  0.65853337    -0.01300
C1654       C  0.37736759  0.57338415  0.64481685    -0.10400
C1655       C  0.34770506  0.59809709  0.64180931     0.06100
H1656       H  0.35715586  0.59771998  0.66825889     0.08000
H1657       H  0.37618196  0.58477929  0.67756252     0.11500
H1658       H  0.38308902  0.56673535  0.63816131     0.11700
H1659       H  0.36350482  0.57889695  0.62893898     0.08000
C1660       C  0.34854099  0.60293393  0.62828017    -0.11100
C1661       C  0.33876870  0.61192017  0.62307419    -0.10400
C1662       C  0.32813981  0.61650677  0.63136854    -0.01300
C1663       C  0.32702922  0.61142737  0.64470303    -0.11500
C1664       C  0.33658179  0.60219601  0.64980764    -0.09900
H1665       H  0.35703080  0.60024277  0.62183541     0.08000
H1666       H  0.33989614  0.61579345  0.61278790     0.11700
H1667       H  0.31879000  0.61468311  0.65123266     0.11400
H1668       H  0.33531394  0.59842580  0.66010441     0.08000
C1669       C  0.50135301  0.56492969  0.62640149    -0.11100
C1670       C  0.51091396  0.55433989  0.62501598     0.06000
C1671       C  0.50931272  0.54254921  0.63314442    -0.09900
C1672       C  0.49829233  0.54128358  0.64210458    -0.11500
C1673       C  0.48847637  0.55161372  0.64287385    -0.01300
C1674       C  0.49017366  0.56348029  0.63504099    -0.10400
C1675       C  0.52204400  0.55539152  0.61468673     0.06100
H1676       H  0.51629431  0.53408106  0.63229790     0.08000
H1677       H  0.49715799  0.53201217  0.64804125     0.11500
H1678       H  0.48287141  0.57171080  0.63566574     0.11700
H1679       H  0.50241333  0.57437249  0.62075094     0.08000
C1680       C  0.51992369  0.56264798  0.60246545    -0.11100
C1681       C  0.53006909  0.56345808  0.59257732    -0.10400
C1682       C  0.54257133  0.55679878  0.59443419    -0.01300
C1683       C  0.54479091  0.54952648  0.60660071    -0.11500
C1684       C  0.53469039  0.54892229  0.61666085    -0.09900
H1685       H  0.51027006  0.56746663  0.60029251     0.08000
H1686       H  0.52794513  0.56906374  0.58328883     0.11700
H1687       H  0.55436436  0.54437696  0.60838968     0.11400
H1688       H  0.53685561  0.54343866  0.62599906     0.08000
C1689       C  0.54714531  0.61591002  0.51782322    -0.11100
C1690       C  0.55084279  0.60214278  0.51635018     0.06000
C1691       C  0.55208826  0.59671833  0.50318513    -0.09900
C1692       C  0.54999416  0.60493464  0.49173725    -0.11500
C1693       C  0.54664905  0.61881580  0.49315643    -0.01300
C1694       C  0.54508465  0.62416824  0.50634655    -0.10400
C1695       C  0.55359436  0.59346671  0.52845698     0.06100
H1696       H  0.55464563  0.58607149  0.50173361     0.08000
H1697       H  0.55103939  0.60033588  0.48178765     0.11500
H1698       H  0.54256183  0.63479899  0.50785759     0.11700
H1699       H  0.54619111  0.62038642  0.52785735     0.08000
C1700       C  0.56473244  0.58450781  0.52856728    -0.11100
C1701       C  0.56723230  0.57612394  0.53983041    -0.10400
C1702       C  0.55861178  0.57646215  0.55123465    -0.01300
C1703       C  0.54756030  0.58556548  0.55118223    -0.11500
C1704       C  0.54509634  0.59398706  0.53992582    -0.09900
H1705       H  0.57157604  0.58403779  0.51994758     0.08000
H1706       H  0.57585624  0.56928392  0.53952371     0.11700
H1707       H  0.54069280  0.58609385  0.55977681     0.11400
H1708       H  0.53637489  0.60071058  0.54007881     0.08000
C1709       C  0.62233422  0.50547719  0.55651829    -0.11100
C1710       C  0.61399775  0.50656113  0.56814479     0.06000
C1711       C  0.61574592  0.49699987  0.57872280    -0.09900
C1712       C  0.62510350  0.48638967  0.57751462    -0.11500
C1713       C  0.63317711  0.48512425  0.56579832    -0.01300
C1714       C  0.63189210  0.49493045  0.55541006    -0.10400
C1715       C  0.60337825  0.51740023  0.56925896     0.06100
H1716       H  0.60990137  0.49769439  0.58802640     0.08000
H1717       H  0.62603385  0.47917846  0.58584159     0.11500
H1718       H  0.63792995  0.49418547  0.54622952     0.11700
H1719       H  0.62123412  0.51252829  0.54808156     0.08000
C1720       C  0.60533223  0.53041224  0.56343003    -0.11100
C1721       C  0.59532745  0.54049202  0.56457137    -0.10400
C1722       C  0.58323919  0.53789856  0.57177489    -0.01300
C1723       C  0.58127355  0.52496703  0.57764135    -0.11500
C1724       C  0.59112715  0.51480864  0.57626646    -0.09900
H1725       H  0.61466655  0.53290979  0.55813550     0.08000
H1726       H  0.59713048  0.55039440  0.55996183     0.11700
H1727       H  0.57196022  0.52258689  0.58304482     0.11400
H1728       H  0.58901053  0.50484103  0.58056715     0.08000
C1729       C  0.90497519  0.37895072  0.85446578    -0.11100
C1730       C  0.91049558  0.36571531  0.85371036     0.06000
C1731       C  0.90723613  0.35756520  0.84234783    -0.09900
C1732       C  0.89835909  0.36234603  0.83227949    -0.11500
C1733       C  0.89281759  0.37549038  0.83316526    -0.01300
C1734       C  0.89636204  0.38383567  0.84421839    -0.10400
C1735       C  0.91935921  0.36037011  0.86484817     0.06100
H1736       H  0.91150810  0.34746281  0.84121455     0.08000
H1737       H  0.89579459  0.35575797  0.82378836     0.11500
H1738       H  0.89201590  0.39392750  0.84523821     0.11700
H1739       H  0.90697084  0.38543969  0.86316539     0.08000
C1740       C  0.92802055  0.36920439  0.87215084    -0.11100
C1741       C  0.93591841  0.36432397  0.88294513    -0.10400
C1742       C  0.93555922  0.35044898  0.88655325    -0.01300
C1743       C  0.92718561  0.34151524  0.87911819    -0.11500
C1744       C  0.91907281  0.34643778  0.86846849    -0.09900
H1745       H  0.92879901  0.37991111  0.86949315     0.08000
H1746       H  0.94243007  0.37141583  0.88838176     0.11700
H1747       H  0.92659734  0.33079347  0.88178525     0.11400
H1748       H  0.91234912  0.33935015  0.86330136     0.08000
C1749       C  0.76703504  0.34888903  0.80301811    -0.11100
C1750       C  0.76967968  0.33510404  0.80596938     0.06000
C1751       C  0.78321393  0.33083228  0.80734881    -0.09900
C1752       C  0.79389931  0.34014109  0.80592514    -0.11500
C1753       C  0.79133027  0.35400484  0.80314722    -0.01300
C1754       C  0.77774414  0.35825443  0.80165962    -0.10400
C1755       C  0.75841246  0.32512746  0.80753235     0.06100
H1756       H  0.78554959  0.32022161  0.80939201     0.08000
H1757       H  0.80415603  0.33635639  0.80703751     0.11500
H1758       H  0.77531666  0.36880592  0.79952309     0.11700
H1759       H  0.75666754  0.35246409  0.80197275     0.08000
C1760       C  0.75860577  0.31548521  0.81816668    -0.11100
C1761       C  0.74815845  0.30583773  0.81944297    -0.10400
C1762       C  0.73733383  0.30559140  0.81005593    -0.01300
C1763       C  0.73713399  0.31531565  0.79946424    -0.11500
C1764       C  0.74753534  0.32499275  0.79824380    -0.09900
H1765       H  0.76681759  0.31546385  0.82555369     0.08000
H1766       H  0.74861602  0.29853728  0.82773434     0.11700
H1767       H  0.72896423  0.31544028  0.79203475     0.11400
H1768       H  0.74721130  0.33221162  0.78987131     0.08000
C1769       C  0.64328970  0.34671990  0.63319030    -0.11100
C1770       C  0.63694724  0.34805664  0.62045020     0.06000
C1771       C  0.62579547  0.33960630  0.61729739    -0.09900
C1772       C  0.62087083  0.33019855  0.62690615    -0.11500
C1773       C  0.62712202  0.32898180  0.63976989    -0.01300
C1774       C  0.63848020  0.33729136  0.64270760    -0.10400
C1775       C  0.64156747  0.35882515  0.61089503     0.06100
H1776       H  0.62068056  0.34054765  0.60755092     0.08000
H1777       H  0.61216205  0.32393972  0.62425620     0.11500
H1778       H  0.64358378  0.33678746  0.65246392     0.11700
H1779       H  0.65194959  0.35308081  0.63582769     0.08000
C1780       C  0.64327277  0.37223823  0.61562969    -0.11100
C1781       C  0.64745290  0.38258593  0.60679155    -0.10400
C1782       C  0.65028613  0.37970742  0.59308716    -0.01300
C1783       C  0.64886554  0.36625384  0.58834339    -0.11500
C1784       C  0.64434654  0.35589685  0.59716016    -0.09900
H1785       H  0.64113579  0.37475925  0.62615223     0.08000
H1786       H  0.64855362  0.39286883  0.61070693     0.11700
H1787       H  0.65093161  0.36384555  0.57778377     0.11400
H1788       H  0.64315500  0.34559691  0.59331903     0.08000
C1789       C  0.66300316  0.29749636  0.75233364    -0.11100
C1790       C  0.66446787  0.28573784  0.76045356     0.06000
C1791       C  0.65566186  0.27458720  0.75815174    -0.09900
C1792       C  0.64585850  0.27510361  0.74777868    -0.11500
C1793       C  0.64484218  0.28667720  0.73938707    -0.01300
C1794       C  0.65340717  0.29790525  0.74186412    -0.10400
C1795       C  0.67529034  0.28515704  0.77108274     0.06100
H1796       H  0.65657431  0.26531153  0.76409884     0.08000
H1797       H  0.63941688  0.26628222  0.74601414     0.11500
H1798       H  0.65266957  0.30707607  0.73572181     0.11700
H1799       H  0.66926856  0.30644794  0.75405563     0.08000
C1800       C  0.68784054  0.29177598  0.76894773    -0.11100
C1801       C  0.69784490  0.29179242  0.77904437    -0.10400
C1802       C  0.69568254  0.28498652  0.79146749    -0.01300
C1803       C  0.68332264  0.27802352  0.79351541    -0.11500
C1804       C  0.67319376  0.27817995  0.78346164    -0.09900
H1805       H  0.69001274  0.29691361  0.75941374     0.08000
H1806       H  0.70733358  0.29709092  0.77705608     0.11700
H1807       H  0.68135351  0.27270518  0.80300150     0.11400
H1808       H  0.66361878  0.27309329  0.78553223     0.08000
C1809       C  0.65875701  0.07483808  0.87470196    -0.11100
C1810       C  0.66317100  0.07467538  0.88839165     0.06000
C1811       C  0.65778061  0.06464785  0.89717730    -0.09900
C1812       C  0.64767561  0.05566039  0.89266792    -0.11500
C1813       C  0.64296048  0.05620681  0.87917314    -0.01300
C1814       C  0.64886610  0.06559433  0.87011310    -0.10400
C1815       C  0.67268861  0.08536261  0.89368861     0.06100
H1816       H  0.66120186  0.06382755  0.90763762     0.08000
H1817       H  0.64344602  0.04833737  0.89979763     0.11500
H1818       H  0.64534273  0.06626821  0.85966612     0.11700
H1819       H  0.66246768  0.08247065  0.86762565     0.08000
C1820       C  0.68250519  0.09146808  0.88516994    -0.11100
C1821       C  0.69060481  0.10224806  0.88989983    -0.10400
C1822       C  0.68933468  0.10692916  0.90334366    -0.01300
C1823       C  0.67995297  0.10055992  0.91203487    -0.11500
C1824       C  0.67160624  0.09003158  0.90722648    -0.09900
H1825       H  0.68391374  0.08800062  0.87480745     0.08000
H1826       H  0.69788329  0.10693163  0.88304073     0.11700
H1827       H  0.67865049  0.10411083  0.92239445     0.11400
H1828       H  0.66398931  0.08590910  0.91404995     0.08000
C1829       C  0.72166400  0.23615381  0.87704133    -0.11100
C1830       C  0.71723126  0.23397036  0.86357520     0.06000
C1831       C  0.71326418  0.22073671  0.85970782    -0.09900
C1832       C  0.71350259  0.21000545  0.86906816    -0.11500
C1833       C  0.71779749  0.21214904  0.88258594    -0.01300
C1834       C  0.72194314  0.22536572  0.88644225    -0.10400
C1835       C  0.71665591  0.24535214  0.85351841     0.06100
H1836       H  0.71008008  0.21860463  0.84935120     0.08000
H1837       H  0.71029237  0.20003962  0.86558203     0.11500
H1838       H  0.72534444  0.22745439  0.89672343     0.11700
H1839       H  0.72469363  0.24624917  0.88038818     0.08000
C1840       C  0.70598056  0.24598096  0.84397083    -0.11100
C1841       C  0.70569837  0.25619562  0.83403694    -0.10400
C1842       C  0.71605269  0.26612101  0.83340942    -0.01300
C1843       C  0.72656688  0.26572580  0.84316636    -0.11500
C1844       C  0.72686851  0.25544741  0.85310640    -0.09900
H1845       H  0.69778614  0.23855809  0.84417213     0.08000
H1846       H  0.69737753  0.25622201  0.82677782     0.11700
H1847       H  0.73469731  0.27322153  0.84300432     0.11400
H1848       H  0.73529416  0.25520277  0.86023513     0.08000
C1849       C  0.84029178  0.89810785  0.40779001    -0.11100
C1850       C  0.84567224  0.89714348  0.39455471     0.06000
C1851       C  0.84139617  0.88633431  0.38618778    -0.09900
C1852       C  0.83213154  0.87661194  0.39096468    -0.11500
C1853       C  0.82687183  0.87739614  0.40427400    -0.01300
C1854       C  0.83098568  0.88835776  0.41259057    -0.10400
C1855       C  0.85615770  0.90695753  0.38962433     0.06100
H1856       H  0.84550832  0.88515773  0.37602953     0.08000
H1857       H  0.82933650  0.86836785  0.38419901     0.11500
H1858       H  0.82711387  0.88940755  0.42284283     0.11700
H1859       H  0.84327985  0.90641401  0.41443949     0.08000
C1860       C  0.85604771  0.91166431  0.37606350    -0.11100
C1861       C  0.86649790  0.92010089  0.37118645    -0.10400
C1862       C  0.87732400  0.92398366  0.37975140    -0.01300
C1863       C  0.87721036  0.91955544  0.39340938    -0.11500
C1864       C  0.86677024  0.91115666  0.39827694    -0.09900
H1865       H  0.84790929  0.90874382  0.36918520     0.08000
H1866       H  0.86621219  0.92331180  0.36063254     0.11700
H1867       H  0.88524368  0.92244930  0.40039553     0.11400
H1868       H  0.86723579  0.90761438  0.40873035     0.08000
C1869       C  0.79174846  0.75108073  0.38225515    -0.11100
C1870       C  0.79584256  0.75320149  0.36868504     0.06000
C1871       C  0.79737654  0.76664295  0.36393455    -0.09900
C1872       C  0.79520370  0.77770521  0.37258824    -0.11500
C1873       C  0.79148824  0.77565415  0.38629026    -0.01300
C1874       C  0.78961263  0.76218429  0.39096900    -0.10400
C1875       C  0.79849676  0.74152347  0.35941969     0.06100
H1876       H  0.80019437  0.76863226  0.35344735     0.08000
H1877       H  0.79655001  0.78784876  0.36844692     0.11500
H1878       H  0.78672089  0.76014908  0.40140947     0.11700
H1879       H  0.79050562  0.74082890  0.38622672     0.08000
C1880       C  0.80953355  0.74191808  0.35031669    -0.11100
C1881       C  0.81166613  0.73128429  0.34108134    -0.10400
C1882       C  0.80279014  0.72000720  0.34071171    -0.01300
C1883       C  0.79193988  0.71946797  0.35005759    -0.11500
C1884       C  0.78983275  0.73008874  0.35930709    -0.09900
H1885       H  0.81653054  0.75048976  0.35032118     0.08000
H1886       H  0.82016528  0.73200854  0.33411048     0.11700
H1887       H  0.78491079  0.71092313  0.35011611     0.11400
H1888       H  0.78119035  0.72952199  0.36611492     0.08000
C1889       C  0.58688342  0.61761813  0.37528943    -0.11100
C1890       C  0.59465588  0.62720333  0.36797551     0.06000
C1891       C  0.59246506  0.64119170  0.37021475    -0.09900
C1892       C  0.58322900  0.64550523  0.38006773    -0.11500
C1893       C  0.57601941  0.63591294  0.38791482    -0.01300
C1894       C  0.57767648  0.62193670  0.38519610    -0.10400
C1895       C  0.60581874  0.62266220  0.35895171     0.06100
H1896       H  0.59815609  0.64881213  0.36456690     0.08000
H1897       H  0.58219278  0.65634374  0.38190171     0.11500
H1898       H  0.57210290  0.61431308  0.39094567     0.11700
H1899       H  0.58838628  0.60677153  0.37382524     0.08000
C1900       C  0.61844901  0.62938229  0.35941721    -0.11100
C1901       C  0.62933884  0.62474848  0.35166238    -0.10400
C1902       C  0.62792697  0.61320896  0.34325985    -0.01300
C1903       C  0.61519512  0.60660924  0.34259893    -0.11500
C1904       C  0.60425692  0.61127587  0.35039154    -0.09900
H1905       H  0.62005238  0.63803830  0.36609463     0.08000
H1906       H  0.63888798  0.63019652  0.35246518     0.11700
H1907       H  0.61367151  0.59772890  0.33623408     0.11400
H1908       H  0.59459350  0.60595638  0.34976091     0.08000
C1909       C  0.75270622  0.63873632  0.30539110    -0.11100
C1910       C  0.75526691  0.64629537  0.31731919     0.06000
C1911       C  0.74747340  0.64351679  0.32900279    -0.09900
C1912       C  0.73695518  0.63393106  0.32860186    -0.11500
C1913       C  0.73409504  0.62673372  0.31657438    -0.01300
C1914       C  0.74225488  0.62897921  0.30505089    -0.10400
C1915       C  0.76568227  0.65734505  0.31757512     0.06100
H1916       H  0.74942824  0.64884394  0.33847236     0.08000
H1917       H  0.73099332  0.63221201  0.33771668     0.11500
H1918       H  0.74021037  0.62361070  0.29562345     0.11700
H1919       H  0.75845390  0.64068401  0.29618637     0.08000
C1920       C  0.77808950  0.65598356  0.31061143    -0.11100
C1921       C  0.78790619  0.66636155  0.31118175    -0.10400
C1922       C  0.78555664  0.67825775  0.31881612    -0.01300
C1923       C  0.77308634  0.67968646  0.32560367    -0.11500
C1924       C  0.76324746  0.66940614  0.32491890    -0.09900
H1925       H  0.78033187  0.64679025  0.30494737     0.08000
H1926       H  0.79742861  0.66495517  0.30584340     0.11700
H1927       H  0.77086762  0.68880530  0.33140331     0.11400
H1928       H  0.75366385  0.67096553  0.33009625     0.08000
C1929       C  0.88935009  0.62491656  0.11181951    -0.11100
C1930       C  0.88306887  0.63774382  0.11243183     0.06000
C1931       C  0.87236165  0.64064747  0.10335834    -0.09900
C1932       C  0.86780092  0.63073926  0.09408370    -0.11500
C1933       C  0.87405932  0.61786549  0.09354756    -0.01300
C1934       C  0.88497011  0.61513522  0.10242901    -0.10400
C1935       C  0.88730970  0.64774039  0.12298342     0.06100
H1936       H  0.86729743  0.65044393  0.10370157     0.08000
H1937       H  0.85942380  0.63315766  0.08731924     0.11500
H1938       H  0.88994598  0.60529645  0.10238532     0.11700
H1939       H  0.89765202  0.62244403  0.11866714     0.08000
C1940       C  0.88846678  0.64357102  0.13664111    -0.11100
C1941       C  0.89210977  0.65291716  0.14676184    -0.10400
C1942       C  0.89496890  0.66657766  0.14341948    -0.01300
C1943       C  0.89414712  0.67072146  0.12971976    -0.11500
C1944       C  0.89016282  0.66141306  0.11959777    -0.09900
H1945       H  0.88627542  0.63310852  0.13952623     0.08000
H1946       H  0.89276633  0.64943347  0.15722742     0.11700
H1947       H  0.89625358  0.68121731  0.12690565     0.11400
H1948       H  0.88941374  0.66484473  0.10912089     0.08000
C1949       C  0.86441034  0.71417279  0.26639187    -0.11100
C1950       C  0.85771718  0.70187810  0.26971616     0.06000
C1951       C  0.86043218  0.69021070  0.26184293    -0.09900
C1952       C  0.86895911  0.69097530  0.25050867    -0.11500
C1953       C  0.87520625  0.70336475  0.24686676    -0.01300
C1954       C  0.87312482  0.71488576  0.25511910    -0.10400
C1955       C  0.84730134  0.70130788  0.28073303     0.06100
H1956       H  0.85581292  0.68046716  0.26433160     0.08000
H1957       H  0.87061496  0.68183167  0.24456413     0.11500
H1958       H  0.87780471  0.72458270  0.25256649     0.11700
H1959       H  0.86250805  0.72338237  0.27215558     0.08000
C1960       C  0.84871926  0.70892931  0.29282024    -0.11100
C1961       C  0.83860467  0.70846674  0.30288729    -0.10400
C1962       C  0.82693473  0.70029012  0.30110882    -0.01300
C1963       C  0.82557965  0.69268160  0.28905529    -0.11500
C1964       C  0.83555143  0.69325459  0.27899612    -0.09900
H1965       H  0.85768460  0.71515380  0.29455422     0.08000
H1966       H  0.83997163  0.71440933  0.31209111     0.11700
H1967       H  0.81666060  0.68640435  0.28724349     0.11400
H1968       H  0.83388541  0.68754376  0.26969958     0.08000
C1969       C  0.51939462  0.72838514  0.84824944    -0.11100
C1970       C  0.51665220  0.74030208  0.84076578     0.06000
C1971       C  0.52732020  0.74677115  0.83373197    -0.09900
C1972       C  0.54048149  0.74135176  0.83408008    -0.11500
C1973       C  0.54328140  0.72954357  0.84173504    -0.01300
C1974       C  0.53260679  0.72313671  0.84884621    -0.10400
C1975       C  0.50271980  0.74604579  0.84043770     0.06100
H1976       H  0.52542856  0.75595920  0.82787075     0.08000
H1977       H  0.54851902  0.74656157  0.82858897     0.11500
H1978       H  0.53443823  0.71398366  0.85477275     0.11700
H1979       H  0.51134258  0.72326925  0.85381838     0.08000
C1980       C  0.49152363  0.73779648  0.83691663    -0.11100
C1981       C  0.47835106  0.74320558  0.83674842    -0.10400
C1982       C  0.47610842  0.75686160  0.84045249    -0.01300
C1983       C  0.48731710  0.76509518  0.84398958    -0.11500
C1984       C  0.50051344  0.75978194  0.84382638    -0.09900
H1985       H  0.49299779  0.72718602  0.83421675     0.08000
H1986       H  0.46988517  0.73662045  0.83405868     0.11700
H1987       H  0.48588120  0.77567758  0.84680606     0.11400
H1988       H  0.50898589  0.76632018  0.84662313     0.08000
C1989       C  0.65329912  0.71297252  0.77469165    -0.11100
C1990       C  0.66132299  0.70110965  0.77366905     0.06000
C1991       C  0.66047855  0.69132933  0.78417459    -0.09900
C1992       C  0.65201008  0.69339572  0.79538705    -0.11500
C1993       C  0.64390935  0.70513383  0.79626879    -0.01300
C1994       C  0.64457380  0.71487754  0.78579023    -0.10400
C1995       C  0.67043732  0.69885499  0.76171003     0.06100
H1996       H  0.66617351  0.68191119  0.78367221     0.08000
H1997       H  0.65156549  0.68561071  0.80323085     0.11500
H1998       H  0.63853379  0.72408738  0.78630678     0.11700
H1999       H  0.65384423  0.72089760  0.76700758     0.08000
C2000       C  0.66694323  0.70387082  0.74870457    -0.11100
C2001       C  0.67549270  0.70176193  0.73753434    -0.10400
C2002       C  0.68761025  0.69433929  0.73900707    -0.01300
C2003       C  0.69107299  0.68917817  0.75190679    -0.11500
C2004       C  0.68268336  0.69153753  0.76314389    -0.09900
H2005       H  0.65749715  0.70927654  0.74705744     0.08000
H2006       H  0.67250765  0.70577551  0.72767852     0.11700
H2007       H  0.70043446  0.68355746  0.75338329     0.11400
H2008       H  0.68594461  0.68776750  0.77299387     0.08000
C2009       C  0.75762943  0.83308624  0.53734599    -0.11100
C2010       C  0.75600844  0.82183958  0.52854030     0.06000
C2011       C  0.74873853  0.81036778  0.53331751    -0.09900
C2012       C  0.74331521  0.81015124  0.54649849    -0.11500
C2013       C  0.74478064  0.82149603  0.55512111    -0.01300
C2014       C  0.75194692  0.83297113  0.55039877    -0.10400
C2015       C  0.76174497  0.82218009  0.51443799     0.06100
H2016       H  0.74700563  0.80161391  0.52681404     0.08000
H2017       H  0.73770637  0.80121572  0.54983438     0.11500
H2018       H  0.75338634  0.84178555  0.55690484     0.11700
H2019       H  0.76342795  0.84197271  0.53424399     0.08000
C2020       C  0.76255802  0.83455389  0.50714107    -0.11100
C2021       C  0.76800622  0.83496617  0.49400161    -0.10400
C2022       C  0.77255535  0.82298701  0.48766934    -0.01300
C2023       C  0.77165564  0.81057918  0.49482677    -0.11500
C2024       C  0.76642517  0.81019093  0.50809152    -0.09900
H2025       H  0.75876935  0.84395553  0.51146060     0.08000
H2026       H  0.76836398  0.84465816  0.48868766     0.11700
H2027       H  0.77520664  0.80118988  0.49026561     0.11400
H2028       H  0.76623823  0.80050391  0.51341473     0.08000
C2029       C  0.72054893  0.74419696  0.65713024    -0.11100
C2030       C  0.70830599  0.74172770  0.66418355     0.06000
C2031       C  0.69717966  0.75039126  0.66170694    -0.09900
C2032       C  0.69847638  0.76165134  0.65306810    -0.11500
C2033       C  0.71081599  0.76435622  0.64642444    -0.01300
C2034       C  0.72174578  0.75534894  0.64823238    -0.10400
C2035       C  0.70727704  0.73067581  0.67461128     0.06100
H2036       H  0.68747145  0.74859101  0.66659282     0.08000
H2037       H  0.68981464  0.76831357  0.65163482     0.11500
H2038       H  0.73138641  0.75727492  0.64324686     0.11700
H2039       H  0.72937496  0.73784129  0.65886299     0.08000
C2040       C  0.71417738  0.71821787  0.67303013    -0.11100
C2041       C  0.71348181  0.70812677  0.68314915    -0.10400
C2042       C  0.70578980  0.71022215  0.69503424    -0.01300
C2043       C  0.69876153  0.72258885  0.69651436    -0.11500
C2044       C  0.69956733  0.73269722  0.68649939    -0.09900
H2045       H  0.72006250  0.71621810  0.66394430     0.08000
H2046       H  0.71896976  0.69868331  0.68164747     0.11700
H2047       H  0.69282103  0.72461322  0.70556362     0.11400
H2048       H  0.69437051  0.74225328  0.68826741     0.08000
C2049       C  0.81873086  0.49738172  0.74902910    -0.11100
C2050       C  0.83086594  0.49388690  0.75585875     0.06000
C2051       C  0.84168893  0.50336196  0.75578008    -0.09900
C2052       C  0.84043766  0.51590260  0.74904799    -0.11500
C2053       C  0.82824815  0.51942916  0.74247028    -0.01300
C2054       C  0.81739471  0.51005976  0.74254011    -0.10400
C2055       C  0.83221022  0.48051702  0.76311885     0.06100
H2056       H  0.85108605  0.50122975  0.76113458     0.08000
H2057       H  0.84892107  0.52299415  0.74927336     0.11500
H2058       H  0.80793896  0.51244616  0.73738454     0.11700
H2059       H  0.81027248  0.49028166  0.74856625     0.08000
C2060       C  0.82091354  0.47440134  0.76952998    -0.11100
C2061       C  0.82217603  0.46188324  0.77631157    -0.10400
C2062       C  0.83479813  0.45523765  0.77703637    -0.01300
C2063       C  0.84612615  0.46136083  0.77077804    -0.11500
C2064       C  0.84483038  0.47377632  0.76381560    -0.09900
H2065       H  0.81109601  0.47936764  0.76950767     0.08000
H2066       H  0.81328196  0.45751298  0.78116461     0.11700
H2067       H  0.85595684  0.45641820  0.77098640     0.11400
H2068       H  0.85371353  0.47796233  0.75879449     0.08000
C2069       C  0.75422912  0.62566262  0.72495989    -0.11100
C2070       C  0.75000568  0.63291744  0.71328271     0.06000
C2071       C  0.75495708  0.62880538  0.70049750    -0.09900
C2072       C  0.76441058  0.61826702  0.69946983    -0.11500
C2073       C  0.76898024  0.61137235  0.71115481    -0.01300
C2074       C  0.76355602  0.61492069  0.72388719    -0.10400
C2075       C  0.74086075  0.64499109  0.71434360     0.06100
H2076       H  0.75162855  0.63382315  0.69123655     0.08000
H2077       H  0.76825252  0.61558044  0.68949564     0.11500
H2078       H  0.76698026  0.60981680  0.73307031     0.11700
H2079       H  0.75072640  0.62858744  0.73498500     0.08000
C2080       C  0.73035500  0.64545198  0.72404855    -0.11100
C2081       C  0.72173693  0.65678579  0.72480201    -0.10400
C2082       C  0.72335090  0.66786838  0.71579361    -0.01300
C2083       C  0.73393404  0.66746872  0.70620991    -0.11500
C2084       C  0.74261593  0.65624028  0.70555703    -0.09900
H2085       H  0.72860694  0.63694780  0.73089886     0.08000
H2086       H  0.71366367  0.65675167  0.73229312     0.11700
H2087       H  0.73558943  0.67588803  0.69922376     0.11400
H2088       H  0.75080858  0.65645821  0.69820519     0.08000
C2089       C  0.25228808  0.65821661  0.50210536    -0.11100
C2090       C  0.25106496  0.66965042  0.51071415     0.06000
C2091       C  0.24495628  0.68151967  0.50540572    -0.09900
C2092       C  0.24036294  0.68199755  0.49190779    -0.11500
C2093       C  0.24150473  0.67054623  0.48340107    -0.01300
C2094       C  0.24746463  0.65862938  0.48866262    -0.10400
C2095       C  0.25619834  0.66926294  0.52509050     0.06100
H2096       H  0.24349618  0.69043431  0.51172611     0.08000
H2097       H  0.23561813  0.69126705  0.48824681     0.11500
H2098       H  0.24859615  0.64967010  0.48232203     0.11700
H2099       H  0.25716143  0.64897476  0.50565217     0.08000
C2100       C  0.25597278  0.65705034  0.53271728    -0.11100
C2101       C  0.26109531  0.65666927  0.54604778    -0.10400
C2102       C  0.26626194  0.66854357  0.55220198    -0.01300
C2103       C  0.26626820  0.68079325  0.54476893    -0.11500
C2104       C  0.26146086  0.68112178  0.53133288    -0.09900
H2105       H  0.25173800  0.64777006  0.52845882     0.08000
H2106       H  0.26084757  0.64711405  0.55162368     0.11700
H2107       H  0.27035683  0.69005863  0.54922065     0.11400
H2108       H  0.26213033  0.69065669  0.52577851     0.08000
C2109       C  0.18906301  0.74378971  0.38008830    -0.11100
C2110       C  0.19997208  0.75289907  0.37801763     0.06000
C2111       C  0.21220072  0.75069812  0.38519157    -0.09900
C2112       C  0.21362452  0.73936824  0.39380833    -0.11500
C2113       C  0.20292480  0.72993634  0.39525202    -0.01300
C2114       C  0.19057078  0.73238246  0.38849177    -0.10400
C2115       C  0.19879479  0.76410918  0.36780947     0.06100
H2116       H  0.22085903  0.75741189  0.38374600     0.08000
H2117       H  0.22328161  0.73767089  0.39886272     0.11500
H2118       H  0.18206721  0.72540543  0.38962957     0.11700
H2119       H  0.17937555  0.74536109  0.37505540     0.08000
C2120       C  0.19150545  0.76195335  0.35564081    -0.11100
C2121       C  0.19061983  0.77219413  0.34579076    -0.10400
C2122       C  0.19718233  0.78480557  0.34772197    -0.01300
C2123       C  0.20447381  0.78704735  0.35986127    -0.11500
C2124       C  0.20520602  0.77682714  0.36984739    -0.09900
H2125       H  0.18671897  0.75220348  0.35353750     0.08000
H2126       H  0.18504833  0.77008389  0.33648522     0.11700
H2127       H  0.20955143  0.79671654  0.36166457     0.11400
H2128       H  0.21075307  0.77890282  0.37916843     0.08000
C2129       C  0.01211758  0.76174591  0.20479993    -0.11100
C2130       C  0.00708522  0.75494012  0.19318475     0.06000
C2131       C  0.01592392  0.75308638  0.18206337    -0.09900
C2132       C  0.02932158  0.75801296  0.18248992    -0.11500
C2133       C  0.03431589  0.76470371  0.19413052    -0.01300
C2134       C  0.02558996  0.76646155  0.20530300    -0.10400
C2135       C  0.99274763  0.74974257  0.19268193     0.06100
H2136       H  0.01256539  0.74765199  0.17305964     0.08000
H2137       H  0.03585912  0.75636417  0.17378365     0.11500
H2138       H  0.02910245  0.77172684  0.21435457     0.11700
H2139       H  0.00559909  0.76361346  0.21346901     0.08000
C2140       C  0.98637601  0.74458143  0.20447050    -0.11100
C2141       C  0.97302071  0.73955833  0.20395142    -0.10400
C2142       C  0.96575250  0.73936286  0.19159825    -0.01300
C2143       C  0.97203980  0.74452938  0.17982451    -0.11500
C2144       C  0.98532072  0.74975841  0.18037586    -0.09900
H2145       H  0.99179369  0.74414568  0.21408098     0.08000
H2146       H  0.96851914  0.73548764  0.21317270     0.11700
H2147       H  0.96663074  0.74465591  0.17019423     0.11400
H2148       H  0.98972438  0.75390684  0.17114556     0.08000
C2149       C  0.13834365  0.78548616  0.27253802    -0.11100
C2150       C  0.14630206  0.79744242  0.27374336     0.06000
C2151       C  0.14465687  0.80783460  0.26398603    -0.09900
C2152       C  0.13581841  0.80609420  0.25299098    -0.11500
C2153       C  0.12819359  0.79403162  0.25156893    -0.01300
C2154       C  0.12927709  0.78384532  0.26158701    -0.10400
C2155       C  0.15654716  0.79904416  0.28485193     0.06100
H2156       H  0.15027363  0.81733487  0.26478141     0.08000
H2157       H  0.13499034  0.81421302  0.24552261     0.11500
H2158       H  0.12355332  0.77441745  0.26064489     0.11700
H2159       H  0.13942747  0.77721918  0.27979828     0.08000
C2160       C  0.15405208  0.79391666  0.29801122    -0.11100
C2161       C  0.16376481  0.79544667  0.30835548    -0.10400
C2162       C  0.17611647  0.80227528  0.30581671    -0.01300
C2163       C  0.17859074  0.80748077  0.29271593    -0.11500
C2164       C  0.16898326  0.80578184  0.28233528    -0.09900
H2165       H  0.14452931  0.78885589  0.30037374     0.08000
H2166       H  0.16154741  0.79138988  0.31838914     0.11700
H2167       H  0.18808544  0.81263003  0.29039800     0.11400
H2168       H  0.17141536  0.80958829  0.27226104     0.08000
C2169       C  0.33710385  0.98705596  0.27228596    -0.11100
C2170       C  0.32503601  0.99336582  0.26792316     0.06000
C2171       C  0.31259234  0.98655612  0.27007020    -0.09900
C2172       C  0.31225808  0.97373322  0.27643565    -0.11500
C2173       C  0.32435658  0.96746216  0.28085687    -0.01300
C2174       C  0.33677266  0.97429549  0.27865837    -0.10400
C2175       C  0.32553947  0.00709471  0.26139447     0.06100
H2176       H  0.30311891  0.99109260  0.26672805     0.08000
H2177       H  0.30249896  0.96882832  0.27798301     0.11500
H2178       H  0.34631896  0.96981421  0.28180129     0.11700
H2179       H  0.34684312  0.99209689  0.27097894     0.08000
C2180       C  0.31591839  0.01713884  0.26466815    -0.11100
C2181       C  0.31693214  0.03029707  0.25914254    -0.10400
C2182       C  0.32757952  0.03373455  0.25017732    -0.01300
C2183       C  0.33701078  0.02356431  0.24668560    -0.11500
C2184       C  0.33599463  0.01043104  0.25220963    -0.09900
H2185       H  0.30781708  0.01494591  0.27181327     0.08000
H2186       H  0.30946503  0.03779344  0.26212275     0.11700
H2187       H  0.34524172  0.02567939  0.23969725     0.11400
H2188       H  0.34342846  0.00285783  0.24927277     0.08000
C2189       C  0.25087913  0.86212238  0.30794098    -0.11100
C2190       C  0.24883139  0.85516161  0.32035910     0.06000
C2191       C  0.25753353  0.85809977  0.33138440    -0.09900
C2192       C  0.26827618  0.86734568  0.32989086    -0.11500
C2193       C  0.27042938  0.87406932  0.31742991    -0.01300
C2194       C  0.26150018  0.87158404  0.30653782    -0.10400
C2195       C  0.23785213  0.84471799  0.32176790     0.06100
H2196       H  0.25607569  0.85323850  0.34119430     0.08000
H2197       H  0.27493278  0.86923369  0.33850791     0.11500
H2198       H  0.26305444  0.87654788  0.29678776     0.11700
H2199       H  0.24452293  0.85999143  0.29916603     0.08000
C2200       C  0.22532817  0.84631549  0.31499164    -0.11100
C2201       C  0.21511374  0.83641117  0.31617531    -0.10400
C2202       C  0.21709214  0.82475998  0.32431705    -0.01300
C2203       C  0.22954463  0.82318177  0.33118798    -0.11500
C2204       C  0.23983826  0.83298479  0.32984642    -0.09900
H2205       H  0.22332741  0.85530757  0.30888246     0.08000
H2206       H  0.20558685  0.83796876  0.31083103     0.11700
H2207       H  0.23143597  0.81424349  0.33742309     0.11400
H2208       H  0.24943814  0.83123703  0.33498420     0.08000
C2209       C  0.01533690  0.22411233  0.93109936    -0.11100
C2210       C  0.00870818  0.22903423  0.94276938     0.06000
C2211       C  0.00836383  0.22074371  0.95448013    -0.09900
C2212       C  0.01457103  0.20790625  0.95453932    -0.11500
C2213       C  0.02128020  0.20300920  0.94287915    -0.01300
C2214       C  0.02150441  0.21127786  0.93114084    -0.10400
C2215       C  0.00233369  0.24281154  0.94271264     0.06100
H2216       H  0.00317885  0.22411791  0.96358807     0.08000
H2217       H  0.01408959  0.20188823  0.96377662     0.11500
H2218       H  0.02653592  0.20795963  0.92194888     0.11700
H2219       H  0.01599747  0.23029579  0.92196169     0.08000
C2220       C  0.00306204  0.25128445  0.95425019    -0.11100
C2221       C  0.99746281  0.26440183  0.95399909    -0.10400
C2222       C  0.99100930  0.26940307  0.94219284    -0.01300
C2223       C  0.99013435  0.26083200  0.93072600    -0.11500
C2224       C  0.99569234  0.24772259  0.93099489    -0.09900
H2225       H  0.00823318  0.24790228  0.96340393     0.08000
H2226       H  0.99833055  0.27061383  0.96306088     0.11700
H2227       H  0.98522109  0.26419302  0.92144497     0.11400
H2228       H  0.99471365  0.24139445  0.92200548     0.08000
C2229       C  0.04782734  0.09905062  0.01692144    -0.11100
C2230       C  0.06024036  0.09287222  0.02055105     0.06000
C2231       C  0.07208831  0.09669185  0.01347999    -0.09900
C2232       C  0.07150593  0.10617459  0.00286257    -0.11500
C2233       C  0.05910078  0.11221313  0.99915275    -0.01300
C2234       C  0.04728386  0.10869646  0.00638242    -0.10400
C2235       C  0.06092249  0.08252601  0.03166824     0.06100
H2236       H  0.08187194  0.09242789  0.01621076     0.08000
H2237       H  0.08082137  0.10884353  0.99760236     0.11500
H2238       H  0.03756199  0.11309481  0.00363749     0.11700
H2239       H  0.03847315  0.09623206  0.02202938     0.08000
C2240       C  0.05288665  0.08385690  0.04341879    -0.11100
C2241       C  0.05383418  0.07433712  0.05401098    -0.10400
C2242       C  0.06293277  0.06332355  0.05317055    -0.01300
C2243       C  0.07087505  0.06190251  0.04138152    -0.11500
C2244       C  0.06982257  0.07134089  0.03072721    -0.09900
H2245       H  0.04606207  0.09242441  0.04458120     0.08000
H2246       H  0.04758684  0.07575177  0.06297035     0.11700
H2247       H  0.07785220  0.05343850  0.04033270     0.11400
H2248       H  0.07594421  0.06981656  0.02170356     0.08000
C2249       C  0.94127902  0.00343083  0.25204402    -0.11100
C2250       C  0.92983892  0.00506205  0.26042713     0.06000
C2251       C  0.91856772  0.01223034  0.25531676    -0.09900
C2252       C  0.91865708  0.01751069  0.24207234    -0.11500
C2253       C  0.93002417  0.01573919  0.23357595    -0.01300
C2254       C  0.94136709  0.00868449  0.23877868    -0.10400
C2255       C  0.92953643  0.99908944  0.27435505     0.06100
H2256       H  0.90967795  0.01383261  0.26160815     0.08000
H2257       H  0.90975750  0.02294186  0.23855527     0.11500
H2258       H  0.95032375  0.00707080  0.23262328     0.11700
H2259       H  0.95006860  0.99783400  0.25564521     0.08000
C2260       C  0.94101109  0.99978776  0.28290010    -0.11100
C2261       C  0.94068807  0.99406997  0.29597610    -0.10400
C2262       C  0.92888920  0.98746846  0.30080733    -0.01300
C2263       C  0.91742290  0.98680136  0.29221426    -0.11500
C2264       C  0.91774587  0.99253970  0.27916901    -0.09900
H2265       H  0.95020563  0.00488962  0.27952346     0.08000
H2266       H  0.94974080  0.99481654  0.30222176     0.11700
H2267       H  0.90813631  0.98184809  0.29549001     0.11400
H2268       H  0.90879820  0.99167326  0.27275578     0.08000
C2269       C  0.00691669  0.02999964  0.13084746    -0.11100
C2270       C  0.00974923  0.04152250  0.12268994     0.06000
C2271       C  0.00084804  0.05273042  0.12336093    -0.09900
C2272       C  0.98915789  0.05220883  0.13138017    -0.11500
C2273       C  0.98614883  0.04059774  0.13923048    -0.01300
C2274       C  0.99528093  0.02958794  0.13910974    -0.10400
C2275       C  0.02153715  0.04180753  0.11308735     0.06100
H2276       H  0.00287150  0.06198264  0.11765047     0.08000
H2277       H  0.98251679  0.06100250  0.13149652     0.11500
H2278       H  0.99321233  0.02049391  0.14506138     0.11700
H2279       H  0.01344060  0.02112673  0.13055210     0.08000
C2280       C  0.03391200  0.03522234  0.11614839    -0.11100
C2281       C  0.04484054  0.03568680  0.10694785    -0.10400
C2282       C  0.04366725  0.04286705  0.09457099    -0.01300
C2283       C  0.03129720  0.04936608  0.09153943    -0.11500
C2284       C  0.02039295  0.04873848  0.10056947    -0.09900
H2285       H  0.03524354  0.02988160  0.12572564     0.08000
H2286       H  0.05424446  0.03058938  0.10959980     0.11700
H2287       H  0.02991426  0.05483793  0.08203488     0.11400
H2288       H  0.01095864  0.05357250  0.09757704     0.08000
C2289       C  0.24809634  0.92833816  0.02663724    -0.11100
C2290       C  0.25663310  0.91697994  0.02837324     0.06000
C2291       C  0.25200658  0.90597545  0.03634761    -0.09900
C2292       C  0.23911543  0.90627140  0.04236240    -0.11500
C2293       C  0.23048372  0.91756517  0.04051586    -0.01300
C2294       C  0.23517587  0.92862248  0.03261735    -0.10400
C2295       C  0.27027107  0.91655523  0.02182174     0.06100
H2296       H  0.25842869  0.89716796  0.03804807     0.08000
H2297       H  0.23598451  0.89763757  0.04850698     0.11500
H2298       H  0.22881747  0.93744468  0.03084962     0.11700
H2299       H  0.25131466  0.93691103  0.02042648     0.08000
C2300       C  0.27483269  0.90459468  0.01543126    -0.11100
C2301       C  0.28765118  0.90416163  0.00926651    -0.10400
C2302       C  0.29629263  0.91566042  0.00940012    -0.01300
C2303       C  0.29169503  0.92763306  0.01580235    -0.11500
C2304       C  0.27883387  0.92808292  0.02189641    -0.09900
H2305       H  0.26840910  0.89558837  0.01506991     0.08000
H2306       H  0.29077576  0.89473794  0.00450363     0.11700
H2307       H  0.29797339  0.93672271  0.01609162     0.11400
H2308       H  0.27565335  0.93741530  0.02683946     0.08000
C2309       C  0.15058655  0.84659661  0.11050169    -0.11100
C2310       C  0.13658123  0.84533479  0.11317162     0.06000
C2311       C  0.12747063  0.85367852  0.10592205    -0.09900
C2312       C  0.13224366  0.86324269  0.09646139    -0.11500
C2313       C  0.14626170  0.86473173  0.09399666    -0.01300
C2314       C  0.15536815  0.85615502  0.10100280    -0.10400
C2315       C  0.13147240  0.83577150  0.12383084     0.06100
H2316       H  0.11663649  0.85309212  0.10783414     0.08000
H2317       H  0.12490294  0.86955439  0.09118864     0.11500
H2318       H  0.16622879  0.85700375  0.09942142     0.11700
H2319       H  0.15786744  0.84021464  0.11579589     0.08000
C2320       C  0.11928627  0.82843676  0.12191329    -0.11100
C2321       C  0.11400944  0.82017276  0.13230787    -0.10400
C2322       C  0.12077657  0.81903948  0.14490414    -0.01300
C2323       C  0.13318342  0.82609349  0.14665101    -0.11500
C2324       C  0.13844428  0.83434970  0.13626629    -0.09900
H2325       H  0.11377796  0.82913005  0.11236522     0.08000
H2326       H  0.10452640  0.81484041  0.13047285     0.11700
H2327       H  0.13880718  0.82549436  0.15611230     0.11400
H2328       H  0.14778086  0.83995661  0.13814865     0.08000
C2329       C  0.11211388  0.97955416  0.07644634    -0.11100
C2330       C  0.11639934  0.99271169  0.07262358     0.06000
C2331       C  0.12937607  0.99427254  0.06674912    -0.09900
C2332       C  0.13774652  0.98290529  0.06459832    -0.11500
C2333       C  0.13331485  0.96970972  0.06822902    -0.01300
C2334       C  0.12043487  0.96824525  0.07430331    -0.10400
C2335       C  0.10698552  0.00452028  0.07415213     0.06100
H2336       H  0.13305893  0.00428260  0.06379564     0.08000
H2337       H  0.14759088  0.98446905  0.05992136     0.11500
H2338       H  0.11663552  0.95834347  0.07739529     0.11700
H2339       H  0.10211951  0.97790155  0.08078233     0.08000
C2340       C  0.10600912  0.01448430  0.06387183    -0.11100
C2341       C  0.09612608  0.02470076  0.06455290    -0.10400
C2342       C  0.08691391  0.02520639  0.07551434    -0.01300
C2343       C  0.08826843  0.01560081  0.08609044    -0.11500
C2344       C  0.09819755  0.00540835  0.08543013    -0.09900
H2345       H  0.11250585  0.01406774  0.05498674     0.08000
H2346       H  0.09546541  0.03195969  0.05623941     0.11700
H2347       H  0.08148861  0.01577669  0.09477165     0.11400
H2348       H  0.09885474  0.99807454  0.09367685     0.08000
C2349       C  0.53067145  0.24691768  0.69741308    -0.11100
C2350       C  0.52122407  0.24977800  0.68702205     0.06000
C2351       C  0.52508555  0.25878296  0.67652008    -0.09900
C2352       C  0.53804979  0.26476507  0.67641152    -0.11500
C2353       C  0.54751426  0.26191275  0.68680971    -0.01300
C2354       C  0.54363250  0.25289343  0.69730921    -0.10400
C2355       C  0.50743672  0.24335297  0.68709919     0.06100
H2356       H  0.51800263  0.26137463  0.66845723     0.08000
H2357       H  0.54055180  0.27171269  0.66820277     0.11500
H2358       H  0.55060356  0.25030744  0.70544667     0.11700
H2359       H  0.52812535  0.23987072  0.70554559     0.08000
C2360       C  0.50137469  0.23886882  0.67490199    -0.11100
C2361       C  0.48844220  0.23283733  0.67494048    -0.10400
C2362       C  0.48118596  0.23113991  0.68717869    -0.01300
C2363       C  0.48725913  0.23561096  0.69938991    -0.11500
C2364       C  0.50021942  0.24162204  0.69935173    -0.09900
H2365       H  0.50670409  0.23986983  0.66530339     0.08000
H2366       H  0.48413490  0.22961228  0.66531200     0.11700
H2367       H  0.48205689  0.23443741  0.70902671     0.11400
H2368       H  0.50451373  0.24508928  0.70891855     0.08000
C2369       C  0.37343748  0.21193238  0.75914433    -0.11100
C2370       C  0.36511268  0.20023123  0.76042691     0.06000
C2371       C  0.36630910  0.18986848  0.75059544    -0.09900
C2372       C  0.37522227  0.19131240  0.73963209    -0.11500
C2373       C  0.38341877  0.20301699  0.73831503    -0.01300
C2374       C  0.38258873  0.21324400  0.74827055    -0.10400
C2375       C  0.35508930  0.19885093  0.77178590     0.06100
H2376       H  0.36042564  0.18053538  0.75137862     0.08000
H2377       H  0.37580918  0.18313469  0.73224744     0.11500
H2378       H  0.38872535  0.22241687  0.74743605     0.11700
H2379       H  0.37269239  0.22024134  0.76635557     0.08000
C2380       C  0.35775730  0.20449197  0.78471702    -0.11100
C2381       C  0.34821192  0.20335591  0.79523256    -0.10400
C2382       C  0.33589196  0.19632568  0.79315972    -0.01300
C2383       C  0.33328214  0.19049831  0.78035888    -0.11500
C2384       C  0.34267458  0.19187617  0.76976838    -0.09900
H2385       H  0.36727910  0.20968380  0.78679369     0.08000
H2386       H  0.35054686  0.20784027  0.80505181     0.11700
H2387       H  0.32380929  0.18514197  0.77841875     0.11400
H2388       H  0.34004280  0.18765879  0.75991733     0.08000
C2389       C  0.26032701  0.33043556  0.99721921    -0.11100
C2390       C  0.26031591  0.31886314  0.00580932     0.06000
C2391       C  0.26667526  0.30689793  0.00105770    -0.09900
C2392       C  0.27292925  0.30657970  0.98824634    -0.11500
C2393       C  0.27331775  0.31829969  0.98000771    -0.01300
C2394       C  0.26691844  0.33020948  0.98459500    -0.10400
C2395       C  0.25403530  0.31940056  0.01972800     0.06100
H2396       H  0.26718707  0.29782901  0.00734504     0.08000
H2397       H  0.27788805  0.29728875  0.98498719     0.11500
H2398       H  0.26689169  0.33933676  0.97833947     0.11700
H2399       H  0.25522158  0.33973055  0.00017818     0.08000
C2400       C  0.25360046  0.33176089  0.02705819    -0.11100
C2401       C  0.24781647  0.33232193  0.04005508    -0.10400
C2402       C  0.24261303  0.32049568  0.04628042    -0.01300
C2403       C  0.24314302  0.30810040  0.03914464    -0.11500
C2404       C  0.24861481  0.30758416  0.02597101    -0.09900
H2405       H  0.25796245  0.34103626  0.02292205     0.08000
H2406       H  0.24772020  0.34199839  0.04537870     0.11700
H2407       H  0.23906952  0.29884567  0.04364294     0.11400
H2408       H  0.24842436  0.29791195  0.02066586     0.08000
C2409       C  0.32032832  0.25706353  0.86592767    -0.11100
C2410       C  0.31000306  0.24723218  0.86418654     0.06000
C2411       C  0.29828895  0.24805781  0.87240673    -0.09900
C2412       C  0.29694806  0.25846284  0.88207187    -0.11500
C2413       C  0.30715487  0.26839929  0.88350959    -0.01300
C2414       C  0.31886007  0.26757883  0.87538091    -0.10400
C2415       C  0.31147842  0.23620604  0.85384847     0.06100
H2416       H  0.29001581  0.24082639  0.87120671     0.08000
H2417       H  0.28776482  0.25898106  0.88812465     0.11500
H2418       H  0.32697607  0.27502305  0.87642032     0.11700
H2419       H  0.32962923  0.25659972  0.86006380     0.08000
C2420       C  0.31820213  0.23870294  0.84141986    -0.11100
C2421       C  0.31968309  0.22831115  0.83178589    -0.10400
C2422       C  0.31428003  0.21524075  0.83424673    -0.01300
C2423       C  0.30750923  0.21274129  0.84660214    -0.11500
C2424       C  0.30621774  0.22305755  0.85632408    -0.09900
H2425       H  0.32215494  0.24875332  0.83901000     0.08000
H2426       H  0.32482530  0.23059171  0.82229424     0.11700
H2427       H  0.30332372  0.20273791  0.84883903     0.11400
H2428       H  0.30123154  0.22065086  0.86585963     0.08000
C2429       C  0.20001942  0.01286446  0.76509648    -0.11100
C2430       C  0.18817054  0.00483017  0.76441414     0.06000
C2431       C  0.17602650  0.01007347  0.76978005    -0.09900
C2432       C  0.17577401  0.02300356  0.77584034    -0.11500
C2433       C  0.18765432  0.03104711  0.77661757    -0.01300
C2434       C  0.19976134  0.02581359  0.77107446    -0.10400
C2435       C  0.18851910  0.99098800  0.75822692     0.06100
H2436       H  0.16675399  0.00406240  0.76949817     0.08000
H2437       H  0.16624251  0.02662831  0.77992569     0.11500
H2438       H  0.20913939  0.03161253  0.77141652     0.11700
H2439       H  0.20949443  0.00916235  0.76090260     0.08000
C2440       C  0.17813964  0.98664865  0.74934794    -0.11100
C2441       C  0.17846569  0.97360758  0.74354766    -0.10400
C2442       C  0.18915433  0.96454870  0.74653664    -0.01300
C2443       C  0.19952763  0.96892545  0.75545649    -0.11500
C2444       C  0.19922785  0.98198841  0.76119550    -0.09900
H2445       H  0.16984361  0.99342581  0.74674191     0.08000
H2446       H  0.17035962  0.97072038  0.73664528     0.11700
H2447       H  0.20787057  0.96226406  0.75813494     0.11400
H2448       H  0.20728724  0.98498599  0.76813654     0.08000
C2449       C  0.11740621  0.10751675  0.85470737    -0.11100
C2450       C  0.12126743  0.11575355  0.86579882     0.06000
C2451       C  0.13494941  0.11968656  0.86712841    -0.09900
C2452       C  0.14460214  0.11542047  0.85769634    -0.11500
C2453       C  0.14085972  0.10706882  0.84665354    -0.01300
C2454       C  0.12714591  0.10313028  0.84525706    -0.10400
C2455       C  0.11129739  0.12000997  0.87627844     0.06100
H2456       H  0.13820436  0.12613298  0.87549703     0.08000
H2457       H  0.15505582  0.11855058  0.85924360     0.11500
H2458       H  0.12392855  0.09674596  0.83683868     0.11700
H2459       H  0.10692670  0.10426863  0.85350714     0.08000
C2460       C  0.09850037  0.12529541  0.87265159    -0.11100
C2461       C  0.08953312  0.12992622  0.88272932    -0.10400
C2462       C  0.09315316  0.12912292  0.89658095    -0.01300
C2463       C  0.10587170  0.12365336  0.90013735    -0.11500
C2464       C  0.11482780  0.11919041  0.89012656    -0.09900
H2465       H  0.09556876  0.12610908  0.86203156     0.08000
H2466       H  0.07976284  0.13402313  0.87970698     0.11700
H2467       H  0.10905966  0.12300412  0.91068614     0.11400
H2468       H  0.12456055  0.11505057  0.89323322     0.08000
C2469       C  0.25920052  0.13690528  0.82531182    -0.11100
C2470       C  0.26636936  0.14062981  0.81346308     0.06000
C2471       C  0.26269349  0.13445177  0.80102227    -0.09900
C2472       C  0.25187031  0.12512875  0.80039909    -0.11500
C2473       C  0.24435108  0.12200892  0.81213760    -0.01300
C2474       C  0.24822312  0.12782551  0.82462045    -0.10400
C2475       C  0.27714181  0.15138806  0.81399192     0.06100
H2476       H  0.26783588  0.13718462  0.79165697     0.08000
H2477       H  0.24898938  0.12084086  0.79063704     0.11500
H2478       H  0.24268118  0.12541158  0.83385266     0.11700
H2479       H  0.26195357  0.14113811  0.83512768     0.08000
C2480       C  0.27578703  0.16263801  0.82277938    -0.11100
C2481       C  0.28557556  0.17301585  0.82299977    -0.10400
C2482       C  0.29692499  0.17252555  0.81432853    -0.01300
C2483       C  0.29836593  0.16125642  0.80559923    -0.11500
C2484       C  0.28862311  0.15078510  0.80547508    -0.09900
H2485       H  0.26696990  0.16363633  0.82928479     0.08000
H2486       H  0.28408358  0.18156760  0.82980972     0.11700
H2487       H  0.30703929  0.16050104  0.79886269     0.11400
H2488       H  0.29012933  0.14218883  0.79873330     0.08000
C2489       C  0.50005918  0.76431572  0.45107354    -0.11100
C2490       C  0.50114806  0.75629026  0.43929719     0.06000
C2491       C  0.49589355  0.76135315  0.42695333    -0.09900
C2492       C  0.48962342  0.77414504  0.42642197    -0.11500
C2493       C  0.48850417  0.78219829  0.43822137    -0.01300
C2494       C  0.49383754  0.77710250  0.45054668    -0.10400
C2495       C  0.50771738  0.74267627  0.43992007     0.06100
H2496       H  0.49646013  0.75532706  0.41773029     0.08000
H2497       H  0.48566731  0.77765688  0.41674140     0.11500
H2498       H  0.49323479  0.78291585  0.45987323     0.11700
H2499       H  0.50416703  0.76076460  0.46069782     0.08000
C2500       C  0.51663827  0.73850662  0.42959657    -0.11100
C2501       C  0.52277627  0.72567006  0.43014994    -0.10400
C2502       C  0.52010714  0.71665887  0.44102621    -0.01300
C2503       C  0.51123665  0.72088943  0.45139912    -0.11500
C2504       C  0.50512363  0.73375022  0.45085462    -0.09900
H2505       H  0.51900377  0.74524992  0.42115637     0.08000
H2506       H  0.52967016  0.72290281  0.42205201     0.11700
H2507       H  0.50883754  0.71423369  0.45987711     0.11400
H2508       H  0.49816919  0.73662470  0.45888767     0.08000
C2509       C  0.41446806  0.85817433  0.36495030    -0.11100
C2510       C  0.40992810  0.87177705  0.36501752     0.06000
C2511       C  0.41464627  0.88061758  0.37526400    -0.09900
C2512       C  0.42315018  0.87579643  0.38560587    -0.11500
C2513       C  0.42718717  0.86205548  0.38588679    -0.01300
C2514       C  0.42308349  0.85337455  0.37525474    -0.10400
C2515       C  0.39940529  0.87647637  0.35522511     0.06100
H2516       H  0.41124763  0.89111450  0.37566381     0.08000
H2517       H  0.42630468  0.88277309  0.39356819     0.11500
H2518       H  0.42602415  0.84273326  0.37521240     0.11700
H2519       H  0.41110834  0.85117075  0.35709053     0.08000
C2520       C  0.39994766  0.88967504  0.34958672    -0.11100
C2521       C  0.38918004  0.89460342  0.34164983    -0.10400
C2522       C  0.37761736  0.88644911  0.33923859    -0.01300
C2523       C  0.37738633  0.87303441  0.34440504    -0.11500
C2524       C  0.38813021  0.86812403  0.35231506    -0.09900
H2525       H  0.40859758  0.89628319  0.35153276     0.08000
H2526       H  0.38977574  0.90494403  0.33779531     0.11700
H2527       H  0.36879263  0.86633940  0.34262025     0.11400
H2528       H  0.38733942  0.85795811  0.35661868     0.08000
C2529       C  0.45944855  0.87896188  0.51561039    -0.11100
C2530       C  0.44721131  0.88568488  0.51869486     0.06000
C2531       C  0.43605767  0.88409093  0.50979826    -0.09900
C2532       C  0.43727418  0.87643954  0.49787638    -0.11500
C2533       C  0.44957273  0.86997152  0.49471069    -0.01300
C2534       C  0.46057594  0.87109799  0.50379620    -0.10400
C2535       C  0.44627496  0.89485588  0.53073415     0.06100
H2536       H  0.42637116  0.88881305  0.51199751     0.08000
H2537       H  0.42855720  0.87554345  0.49115510     0.11500
H2538       H  0.47021325  0.86629583  0.50153989     0.11700
H2539       H  0.46831816  0.88011822  0.52207839     0.08000
C2540       C  0.45337182  0.89195871  0.54288166     0.24100
C2541       C  0.45301925  0.90105752  0.55385798    -0.10400
C2542       C  0.44541570  0.91314526  0.55298025    -0.01300
C2543       C  0.43808299  0.91587594  0.54097707    -0.11500
C2544       C  0.43859408  0.90691720  0.52996995    -0.09900
H2545       H  0.45919753  0.88265497  0.54392968     0.08000
H2546       H  0.45866733  0.89861537  0.56303176     0.11700
H2547       H  0.43219806  0.92514829  0.53991874     0.11400
H2548       H  0.43323964  0.90967458  0.52071675     0.08000
C2549       C  0.26853326  0.05804834  0.53193121    -0.11100
C2550       C  0.26414849  0.06936369  0.52425048     0.06000
C2551       C  0.27304139  0.08057829  0.52277614    -0.09900
C2552       C  0.28601616  0.08040134  0.52869590    -0.11500
C2553       C  0.29046128  0.06894399  0.53607169    -0.01300
C2554       C  0.28156127  0.05780440  0.53768283    -0.10400
C2555       C  0.25053163  0.06929290  0.51750200     0.06100
H2556       H  0.27011742  0.08937673  0.51676281     0.08000
H2557       H  0.29269572  0.08909299  0.52719421     0.11500
H2558       H  0.28461434  0.04892375  0.54350978     0.11700
H2559       H  0.26187564  0.04936323  0.53354964     0.08000
C2560       C  0.24521531  0.05718463  0.51186169    -0.11100
C2561       C  0.23262923  0.05714225  0.50518074    -0.10400
C2562       C  0.22510760  0.06923335  0.50382206    -0.01300
C2563       C  0.23032004  0.08132055  0.50954943    -0.11500
C2564       C  0.24284877  0.08133929  0.51636734    -0.09900
H2565       H  0.25092855  0.04776548  0.51230724     0.08000
H2566       H  0.22896991  0.04768827  0.50077024     0.11700
H2567       H  0.22467401  0.09076661  0.50886240     0.11400
H2568       H  0.24647877  0.09079134  0.52081002     0.08000
C2569       C  0.37217491  0.14261945  0.59962071    -0.11100
C2570       C  0.38521793  0.14215971  0.60552839     0.06000
C2571       C  0.39331977  0.13058713  0.60331600    -0.09900
C2572       C  0.38836582  0.11958332  0.59570350    -0.11500
C2573       C  0.37518397  0.11987474  0.59009653    -0.01300
C2574       C  0.36722595  0.13161956  0.59197046    -0.10400
C2575       C  0.39004938  0.15324187  0.61470812     0.06100
H2576       H  0.40334261  0.12982765  0.60785929     0.08000
H2577       H  0.39485645  0.11079167  0.59436891     0.11500
H2578       H  0.35702878  0.13222192  0.58784168     0.11700
H2579       H  0.36573124  0.15144884  0.60102325     0.08000
C2580       C  0.40373746  0.15750926  0.61465667    -0.11100
C2581       C  0.40853674  0.16686618  0.62433662    -0.10400
C2582       C  0.39975662  0.17209894  0.63431594    -0.01300
C2583       C  0.38592862  0.16833518  0.63390359    -0.11500
C2584       C  0.38114547  0.15901468  0.62424885    -0.09900
H2585       H  0.41080068  0.15341227  0.60727912     0.08000
H2586       H  0.41921710  0.16958590  0.62427859     0.11700
H2587       H  0.37878003  0.17233085  0.64123442     0.11400
H2588       H  0.37056676  0.15590480  0.62463503     0.08000
C2589       C  0.41886843  0.97676857  0.58064126    -0.11100
C2590       C  0.40709653  0.97578871  0.57250176     0.06000
C2591       C  0.40477447  0.96373339  0.56507773    -0.09900
C2592       C  0.41404760  0.95297041  0.56571490    -0.11500
C2593       C  0.42576994  0.95396993  0.57390107    -0.01300
C2594       C  0.42803860  0.96595604  0.58140870    -0.10400
C2595       C  0.39742948  0.98739538  0.57168396     0.06100
H2596       H  0.39572704  0.96254708  0.55886594     0.08000
H2597       H  0.41198425  0.94383112  0.55985168     0.11500
H2598       H  0.43704776  0.96711098  0.58769093     0.11700
H2599       H  0.42116069  0.98600655  0.58625170     0.08000
C2600       C  0.39502279  0.99556640  0.58319552    -0.11100
C2601       C  0.38674901  0.00706414  0.58225099    -0.10400
C2602       C  0.38042051  0.01043212  0.56988918    -0.01300
C2603       C  0.38229367  0.00203578  0.55849972    -0.11500
C2604       C  0.39084989  0.99068448  0.55934147    -0.09900
H2605       H  0.39961268  0.99314353  0.59294293     0.08000
H2606       H  0.38529357  0.01335994  0.59119218     0.11700
H2607       H  0.37758527  0.00457253  0.54882983     0.11400
H2608       H  0.39261724  0.98474517  0.55022756     0.08000
C2609       C  0.59129496  0.98451191  0.75215286    -0.11100
C2610       C  0.58010688  0.98363013  0.76106112     0.06000
C2611       C  0.56799757  0.97758501  0.75620937    -0.09900
C2612       C  0.56709580  0.97264794  0.74285434    -0.11500
C2613       C  0.57834919  0.97339496  0.73409005    -0.01300
C2614       C  0.59045781  0.97935525  0.73889955    -0.10400
C2615       C  0.58108305  0.98902276  0.77528189     0.06100
H2616       H  0.55923871  0.97642887  0.76278143     0.08000
H2617       H  0.55767612  0.96795397  0.73950783     0.11500
H2618       H  0.59926566  0.98024328  0.73234336     0.11700
H2619       H  0.60069019  0.98937034  0.75531210     0.08000
C2620       C  0.59351953  0.98873981  0.78245479    -0.11100
C2621       C  0.59453125  0.99413298  0.79560460    -0.10400
C2622       C  0.58307539  0.99963838  0.80205867    -0.01300
C2623       C  0.57058889  0.99970933  0.79509953    -0.11500
C2624       C  0.56963022  0.99461205  0.78181138    -0.09900
H2625       H  0.60249940  0.98423088  0.77799329     0.08000
H2626       H  0.60424971  0.99379499  0.80081985     0.11700
H2627       H  0.56163158  0.00403890  0.79980089     0.11400
H2628       H  0.55994572  0.99530603  0.77659338     0.08000
C2629       C  0.67379211  0.89358692  0.63511148    -0.11100
C2630       C  0.66143684  0.88938207  0.64099189     0.06000
C2631       C  0.65919458  0.87544787  0.64344795    -0.09900
C2632       C  0.66899226  0.86584046  0.63997848    -0.11500
C2633       C  0.68125145  0.86989460  0.63380877    -0.01300
C2634       C  0.68358609  0.88387822  0.63139489    -0.10400
C2635       C  0.65051027  0.89920831  0.64420151     0.06100
H2636       H  0.64977438  0.87197969  0.64803493     0.08000
H2637       H  0.66676057  0.85516917  0.64184845     0.11500
H2638       H  0.69296901  0.88728373  0.62670667     0.11700
H2639       H  0.67569915  0.90430608  0.63310200     0.08000
C2640       C  0.65285190  0.91040855  0.65281722    -0.11100
C2641       C  0.64197843  0.91864024  0.65698536    -0.10400
C2642       C  0.62863326  0.91588241  0.65245926    -0.01300
C2643       C  0.62650866  0.90496674  0.64339513    -0.11500
C2644       C  0.63729389  0.89671895  0.63937652    -0.09900
H2645       H  0.66297944  0.91247108  0.65670105     0.08000
H2646       H  0.64401403  0.92702845  0.66386827     0.11700
H2647       H  0.61644864  0.90243392  0.63967841     0.11400
H2648       H  0.63527081  0.88817430  0.63265890     0.08000
C2649       C  0.47479068  0.94023126  0.61648918    -0.11100
C2650       C  0.48756964  0.93442354  0.61379284     0.06000
C2651       C  0.48953685  0.92783242  0.60119911    -0.09900
C2652       C  0.47900279  0.92701006  0.59162464    -0.11500
C2653       C  0.46633580  0.93298580  0.59429634    -0.01300
C2654       C  0.46434739  0.93962135  0.60681210    -0.10400
C2655       C  0.49882733  0.93531289  0.62398328     0.06100
H2656       H  0.49930345  0.92350456  0.59859350     0.08000
H2657       H  0.48088309  0.92197538  0.58199505     0.11500
H2658       H  0.45464717  0.94424249  0.60919190     0.11700
H2659       H  0.47277588  0.94515233  0.62613935     0.08000
C2660       C  0.50035430  0.94687757  0.63239180    -0.11100
C2661       C  0.51121527  0.94784842  0.64161060    -0.10400
C2662       C  0.52090990  0.93740124  0.64243851    -0.01300
C2663       C  0.51926896  0.92575307  0.63426477    -0.11500
C2664       C  0.50831322  0.92466566  0.62524172    -0.09900
H2665       H  0.49339432  0.95537987  0.63159834     0.08000
H2666       H  0.51230691  0.95699440  0.64770861     0.11700
H2667       H  0.52647343  0.91743397  0.63484750     0.11400
H2668       H  0.50729822  0.91544177  0.61925708     0.08000
C2669       C  0.66646699  0.48665101  0.26233100    -0.11100
C2670       C  0.67846025  0.49460519  0.26261237     0.06000
C2671       C  0.69057287  0.48866409  0.25779987    -0.09900
C2672       C  0.69076370  0.47515388  0.25321591    -0.11500
C2673       C  0.67879204  0.46730837  0.25293659    -0.01300
C2674       C  0.66661036  0.47323760  0.25740078    -0.10400
C2675       C  0.67843809  0.50887123  0.26812267     0.06100
H2676       H  0.69995971  0.49445482  0.25740618     0.08000
H2677       H  0.70026385  0.47093990  0.24961122     0.11500
H2678       H  0.65723250  0.46739153  0.25738603     0.11700
H2679       H  0.65697130  0.49062973  0.26617150     0.08000
C2680       C  0.66670501  0.51709604  0.26738998    -0.11100
C2681       C  0.66664082  0.53023880  0.27300157    -0.10400
C2682       C  0.67838903  0.53562163  0.27917206    -0.01300
C2683       C  0.69017677  0.52760735  0.27967371    -0.11500
C2684       C  0.69015833  0.51436658  0.27439223    -0.09900
H2685       H  0.65755722  0.51347442  0.26239523     0.08000
H2686       H  0.65744126  0.53626223  0.27235387     0.11700
H2687       H  0.69933241  0.53140559  0.28454693     0.11400
H2688       H  0.69930471  0.50836597  0.27556014     0.08000
C2689       C  0.75510961  0.36141743  0.23425151    -0.11100
C2690       C  0.75764392  0.35524398  0.22152134     0.06000
C2691       C  0.74939718  0.35896596  0.21037256    -0.09900
C2692       C  0.73843347  0.36782338  0.21207981    -0.11500
C2693       C  0.73564067  0.37352720  0.22486898    -0.01300
C2694       C  0.74430046  0.37058986  0.23586181    -0.10400
C2695       C  0.76827466  0.34444826  0.21999501     0.06100
H2696       H  0.75124162  0.35486689  0.20031412     0.08000
H2697       H  0.73200371  0.37011232  0.20339085     0.11500
H2698       H  0.74228031  0.37481849  0.24584316     0.11700
H2699       H  0.76108711  0.35875259  0.24313670     0.08000
C2700       C  0.78021932  0.34462032  0.22794808    -0.11100
C2701       C  0.78972544  0.33404398  0.22701176    -0.10400
C2702       C  0.78763533  0.32308383  0.21798206    -0.01300
C2703       C  0.77589670  0.32306824  0.20978181    -0.11500
C2704       C  0.76631466  0.33352972  0.21084409    -0.09900
H2705       H  0.78227524  0.35293645  0.23491223     0.08000
H2706       H  0.79872020  0.33446321  0.23340016     0.11700
H2707       H  0.77391077  0.31478168  0.20274937     0.11400
H2708       H  0.75716126  0.33278735  0.20473331     0.08000
C2709       C  0.76082497  0.18294014  0.03048054    -0.11100
C2710       C  0.75400135  0.17109553  0.02596571     0.06000
C2711       C  0.75245834  0.16011930  0.03512977    -0.09900
C2712       C  0.75799638  0.16076218  0.04823988    -0.11500
C2713       C  0.76493091  0.17250489  0.05263326    -0.01300
C2714       C  0.76611507  0.18368013  0.04372765    -0.10400
C2715       C  0.74875107  0.17002365  0.01172284     0.06100
H2716       H  0.74695071  0.15098837  0.03219520     0.08000
H2717       H  0.75676663  0.15208790  0.05500035     0.11500
H2718       H  0.77151551  0.19281775  0.04685915     0.11700
H2719       H  0.76239375  0.19152495  0.02368883     0.08000
C2720       C  0.74353217  0.18151274  0.00486181    -0.11100
C2721       C  0.73866379  0.18042103  0.99148741    -0.10400
C2722       C  0.73872154  0.16778771  0.98472795    -0.01300
C2723       C  0.74391568  0.15631212  0.99154245    -0.11500
C2724       C  0.74896518  0.15743360  0.00482136    -0.09900
H2725       H  0.74299171  0.19132592  0.00988489     0.08000
H2726       H  0.73459836  0.18942457  0.98654633     0.11700
H2727       H  0.74429536  0.14647911  0.98653686     0.11400
H2728       H  0.75321238  0.14842948  0.00959900     0.08000
C2729       C  0.85475013  0.11883590  0.13622381    -0.11100
C2730       C  0.85131098  0.10492025  0.13686182     0.06000
C2731       C  0.83803777  0.10082746  0.13325613    -0.09900
C2732       C  0.82844170  0.11052850  0.12898165    -0.11500
C2733       C  0.83192068  0.12445123  0.12859267    -0.01300
C2734       C  0.84515021  0.12848194  0.13223231    -0.10400
C2735       C  0.86169278  0.09491486  0.14137765     0.06100
H2736       H  0.83515506  0.09014574  0.13361497     0.08000
H2737       H  0.81826215  0.10721682  0.12626854     0.11500
H2738       H  0.84811990  0.13914252  0.13191565     0.11700
H2739       H  0.86484346  0.12230604  0.13906654     0.08000
C2740       C  0.87504519  0.09591520  0.13642783    -0.11100
C2741       C  0.88522737  0.08736374  0.14141205    -0.10400
C2742       C  0.88234508  0.07756865  0.15151145    -0.01300
C2743       C  0.86890075  0.07635917  0.15628893    -0.11500
C2744       C  0.85864915  0.08491264  0.15121307    -0.09900
H2745       H  0.87765403  0.10344777  0.12875288     0.08000
H2746       H  0.89542191  0.08869287  0.13750111     0.11700
H2747       H  0.86628975  0.06886005  0.16397698     0.11400
H2748       H  0.84844677  0.08399326  0.15526649     0.08000
C2749       C  0.81082930  0.24038836  0.16335582    -0.11100
C2750       C  0.79961004  0.24882862  0.16599841     0.06000
C2751       C  0.78748497  0.24661832  0.15860409    -0.09900
C2752       C  0.78655025  0.23598729  0.14906486    -0.11500
C2753       C  0.79766639  0.22729803  0.14687468    -0.01300
C2754       C  0.80983772  0.22972626  0.15400284    -0.10400
C2755       C  0.80064043  0.25966324  0.17661734     0.06100
H2756       H  0.77861151  0.25285889  0.16044887     0.08000
H2757       H  0.77702490  0.23428779  0.14374724     0.11500
H2758       H  0.81866838  0.22337186  0.15233335     0.11700
H2759       H  0.82043951  0.24201161  0.16853682     0.08000
C2760       C  0.80814002  0.25731857  0.18863357    -0.11100
C2761       C  0.80959550  0.26753289  0.19845606    -0.10400
C2762       C  0.80343951  0.28033140  0.19663897    -0.01300
C2763       C  0.79573122  0.28264270  0.18475098    -0.11500
C2764       C  0.79438627  0.27244090  0.17482893    -0.09900
H2765       H  0.81283251  0.24750900  0.19052591     0.08000
H2766       H  0.81545034  0.26533124  0.20756159     0.11700
H2767       H  0.79089057  0.29241058  0.18301584     0.11400
H2768       H  0.78866201  0.27465472  0.16564807     0.08000
C2769       C  0.99220330  0.24965228  0.35367300    -0.11100
C2770       C  0.99770982  0.24507226  0.34129415     0.06000
C2771       C  0.99015023  0.24696471  0.32926130    -0.09900
C2772       C  0.97743538  0.25335075  0.32958615    -0.11500
C2773       C  0.97197601  0.25807690  0.34194963    -0.01300
C2774       C  0.97951884  0.25609278  0.35399498    -0.10400
C2775       C  0.01137776  0.23856500  0.34093359     0.06100
H2776       H  0.99403632  0.24342518  0.31957900     0.08000
H2777       H  0.97200220  0.25471361  0.32008331     0.11500
H2778       H  0.97565649  0.25949295  0.36372157     0.11700
H2779       H  0.99782658  0.24848522  0.36310859     0.08000
C2780       C  0.01534134  0.22928550  0.35112707    -0.11100
C2781       C  0.02835247  0.22353456  0.35105299    -0.10400
C2782       C  0.03777714  0.22694825  0.34080301    -0.01300
C2783       C  0.03370812  0.23606187  0.33047416    -0.11500
C2784       C  0.02067837  0.24178639  0.33053734    -0.09900
H2785       H  0.00834047  0.22641140  0.35915349     0.08000
H2786       H  0.03097176  0.21643525  0.35908608     0.11700
H2787       H  0.04063145  0.23901655  0.32243351     0.11400
H2788       H  0.01799958  0.24901207  0.32261287     0.08000
C2789       C  0.86605412  0.28414154  0.27037919    -0.11100
C2790       C  0.85860443  0.29619584  0.26804998     0.06000
C2791       C  0.86155304  0.30769799  0.27611701    -0.09900
C2792       C  0.87129368  0.30705655  0.28648405    -0.11500
C2793       C  0.87851168  0.29494930  0.28900877    -0.01300
C2794       C  0.87594897  0.28355188  0.28069814    -0.10400
C2795       C  0.84765545  0.29681439  0.25746458     0.06100
H2796       H  0.85636332  0.31728126  0.27440668     0.08000
H2797       H  0.87319686  0.31612967  0.29248708     0.11500
H2798       H  0.88128947  0.27405483  0.28242260     0.11700
H2799       H  0.86399886  0.27502931  0.26448421     0.08000
C2800       C  0.84879321  0.28963047  0.24510476    -0.11100
C2801       C  0.83852419  0.29041215  0.23519102    -0.10400
C2802       C  0.82695614  0.29853411  0.23732044    -0.01300
C2803       C  0.82577974  0.30564975  0.24967350    -0.11500
C2804       C  0.83592183  0.30471644  0.25964266    -0.09900
H2805       H  0.85773093  0.28358755  0.24296233     0.08000
H2806       H  0.83976864  0.28485399  0.22574717     0.11700
H2807       H  0.81692346  0.31185820  0.25171991     0.11400
H2808       H  0.83446940  0.31011698  0.26913975     0.08000
C2809       C  0.44974125  0.49778732  0.78560225    -0.11100
C2810       C  0.43773943  0.50019386  0.77810109     0.06000
C2811       C  0.42519859  0.49652135  0.78401265    -0.09900
C2812       C  0.42468773  0.49038722  0.79686683    -0.11500
C2813       C  0.43667032  0.48798241  0.80429535    -0.01300
C2814       C  0.44919539  0.49187043  0.79859036    -0.10400
C2815       C  0.43820815  0.50656686  0.76425430     0.06100
H2816       H  0.41568908  0.49854333  0.77882045     0.08000
H2817       H  0.41484964  0.48772404  0.80106453     0.11500
H2818       H  0.45862228  0.49003946  0.80401320     0.11700
H2819       H  0.45961752  0.50022677  0.78137564     0.08000
C2820       C  0.44837192  0.51617616  0.76083679    -0.11100
C2821       C  0.44851005  0.52239703  0.74798040    -0.10400
C2822       C  0.43828384  0.51944876  0.73843465    -0.01300
C2823       C  0.42820722  0.50983775  0.74169725    -0.11500
C2824       C  0.42829280  0.50329591  0.75436548    -0.09900
H2825       H  0.45605228  0.51917630  0.76817431     0.08000
H2826       H  0.45634102  0.52985750  0.74565072     0.11700
H2827       H  0.42034285  0.50727973  0.73436543     0.11400
H2828       H  0.42055594  0.49566187  0.75636378     0.08000
C2829       C  0.36667301  0.41536542  0.89708861    -0.11100
C2830       C  0.36292666  0.40433795  0.88870377     0.06000
C2831       C  0.36811181  0.40382023  0.87533885    -0.09900
C2832       C  0.37718517  0.41381942  0.87067690    -0.11500
C2833       C  0.38143104  0.42437178  0.87936450    -0.01300
C2834       C  0.37592351  0.42518921  0.89251207    -0.10400
C2835       C  0.35412758  0.39316314  0.89407607     0.06100
H2836       H  0.36560253  0.39540842  0.86863549     0.08000
H2837       H  0.38138406  0.41291667  0.86052587     0.11500
H2838       H  0.37889864  0.43336761  0.89932800     0.11700
H2839       H  0.36259478  0.41633129  0.90727741     0.08000
C2840       C  0.35520489  0.38894119  0.90777985    -0.11100
C2841       C  0.34720256  0.37820996  0.91275754    -0.10400
C2842       C  0.33819147  0.37129771  0.90406786    -0.01300
C2843       C  0.33707883  0.37545298  0.89041182    -0.11500
C2844       C  0.34484998  0.38635771  0.88549863    -0.09900
H2845       H  0.36245449  0.39371297  0.91461481     0.08000
H2846       H  0.34834788  0.37505081  0.92328395     0.11700
H2847       H  0.33007508  0.37034361  0.88355102     0.11400
H2848       H  0.34354240  0.38947008  0.87498501     0.08000
C2849       C  0.49162811  0.44987607  0.92480705    -0.11100
C2850       C  0.50120168  0.46053149  0.92608286     0.06000
C2851       C  0.50075494  0.47135410  0.91659719    -0.09900
C2852       C  0.49083458  0.47162591  0.90632483    -0.11500
C2853       C  0.48099447  0.46124005  0.90548951    -0.01300
C2854       C  0.48157685  0.45030367  0.91473723    -0.10400
C2855       C  0.51142213  0.46037958  0.93737018     0.06100
H2856       H  0.50781557  0.47983274  0.91730954     0.08000
H2857       H  0.49055420  0.48021324  0.89935731     0.11500
H2858       H  0.47426649  0.44201792  0.91416412     0.11700
H2859       H  0.49186934  0.44114702  0.93158729     0.08000
C2860       C  0.50814534  0.45460346  0.95011474    -0.11100
C2861       C  0.51779643  0.45403719  0.96058123    -0.10400
C2862       C  0.53088667  0.45949349  0.95869521    -0.01300
C2863       C  0.53410935  0.46559210  0.94613201    -0.11500
C2864       C  0.52453780  0.46592026  0.93555017    -0.09900
H2865       H  0.49806399  0.45058797  0.95209354     0.08000
H2866       H  0.51495272  0.44944670  0.97022145     0.11700
H2867       H  0.54415215  0.46982487  0.94436193     0.11400
H2868       H  0.52754350  0.47027568  0.92586415     0.08000
C2869       C  0.52686697  0.25238810  0.09328089    -0.11100
C2870       C  0.51425846  0.25073780  0.08674042     0.06000
C2871       C  0.50805399  0.26211723  0.08064410    -0.09900
C2872       C  0.51446571  0.27491418  0.08092559    -0.11500
C2873       C  0.52706332  0.27660726  0.08755905    -0.01300
C2874       C  0.53314748  0.26521371  0.09379854    -0.10400
C2875       C  0.50760860  0.23715475  0.08634876     0.06100
H2876       H  0.49832757  0.26105031  0.07553132     0.08000
H2877       H  0.50946168  0.28350789  0.07612388     0.11500
H2878       H  0.54287027  0.26615164  0.09892356     0.11700
H2879       H  0.53178529  0.24375646  0.09812354     0.08000
C2880       C  0.51465221  0.22576722  0.08136730    -0.11100
C2881       C  0.50846168  0.21287234  0.08119783    -0.10400
C2882       C  0.49521528  0.21108243  0.08628195    -0.01300
C2883       C  0.48819715  0.22250471  0.09128771    -0.11500
C2884       C  0.49428814  0.23544362  0.09119072    -0.09900
H2885       H  0.52493023  0.22688333  0.07755113     0.08000
H2886       H  0.51416037  0.20426217  0.07736483     0.11700
H2887       H  0.47795011  0.22146724  0.09518634     0.11400
H2888       H  0.48869961  0.24408588  0.09513482     0.08000
C2889       C  0.60478212  0.35176422  0.16104149    -0.11100
C2890       C  0.60142775  0.36418661  0.16744680     0.06000
C2891       C  0.58927579  0.37072426  0.16361688    -0.09900
C2892       C  0.58108421  0.36536131  0.15325592    -0.11500
C2893       C  0.58465764  0.35317661  0.14669003    -0.01300
C2894       C  0.59639738  0.34624489  0.15088108    -0.10400
C2895       C  0.61085493  0.37056888  0.17758409     0.06100
H2896       H  0.58612449  0.38007966  0.16851578     0.08000
H2897       H  0.57197038  0.37081196  0.15029132     0.11500
H2898       H  0.59943674  0.33690947  0.14585341     0.11700
H2899       H  0.61415091  0.34651951  0.16348178     0.08000
C2900       C  0.61902602  0.36240870  0.18609261    -0.11100
C2901       C  0.62873258  0.36833646  0.19468720    -0.10400
C2902       C  0.63034547  0.38257957  0.19521460    -0.01300
C2903       C  0.62178522  0.39082121  0.18725976    -0.11500
C2904       C  0.61223659  0.38488655  0.17843888    -0.09900
H2905       H  0.61802812  0.35139844  0.18605829     0.08000
H2906       H  0.63503982  0.36173781  0.20089936     0.11700
H2907       H  0.62287704  0.40182882  0.18740116     0.11400
H2908       H  0.60631715  0.39155049  0.17193263     0.08000
C2909       C  0.55343593  0.42808455  0.02253830    -0.11100
C2910       C  0.54770505  0.41532059  0.01910569     0.06000
C2911       C  0.54217953  0.41364721  0.00595520    -0.09900
C2912       C  0.54251833  0.42434181  0.99649492    -0.11500
C2913       C  0.54865935  0.43687173  0.99982800    -0.01300
C2914       C  0.55405913  0.43866428  0.01295783    -0.10400
C2915       C  0.54781155  0.40374168  0.02905080     0.06100
H2916       H  0.53789288  0.40396235  0.00278846     0.08000
H2917       H  0.53833433  0.42265832  0.98640938     0.11500
H2918       H  0.55866890  0.44829992  0.01585973     0.11700
H2919       H  0.55744552  0.42996081  0.03264836     0.08000
C2920       C  0.55851751  0.40239376  0.03851460    -0.11100
C2921       C  0.55863056  0.39165773  0.04790097    -0.10400
C2922       C  0.54821176  0.38180837  0.04789980    -0.01300
C2923       C  0.53766081  0.38288444  0.03831449    -0.11500
C2924       C  0.53736983  0.39381731  0.02909315    -0.09900
H2925       H  0.56695274  0.40953147  0.03860627     0.08000
H2926       H  0.56699846  0.39097136  0.05507213     0.11700
H2927       H  0.52942780  0.37549890  0.03821330     0.11400
H2928       H  0.52881943  0.39458418  0.02216744     0.08000
C2929       C  0.75229460  0.57320539  0.00108070    -0.11100
C2930       C  0.75427253  0.56736016  0.01401641     0.06000
C2931       C  0.74299778  0.56226363  0.02118251    -0.09900
C2932       C  0.72994947  0.56303368  0.01555973    -0.11500
C2933       C  0.72788210  0.56917814  0.00277834    -0.01300
C2934       C  0.73917560  0.57425379  0.99557146    -0.10400
C2935       C  0.76797263  0.56693685  0.02029018     0.06100
H2936       H  0.74430854  0.55767055  0.03115170     0.08000
H2937       H  0.72143325  0.55912266  0.02138082     0.11500
H2938       H  0.73786873  0.57896128  0.98565954     0.11700
H2939       H  0.76085643  0.57724749  0.99540488     0.08000
C2940       C  0.77901127  0.56119572  0.01331386    -0.11100
C2941       C  0.79187178  0.56062025  0.01946789    -0.10400
C2942       C  0.79395612  0.56609855  0.03254388    -0.01300
C2943       C  0.78292654  0.57195009  0.03943525    -0.11500
C2944       C  0.77002746  0.57223288  0.03342382    -0.09900
H2945       H  0.77762809  0.55701119  0.00319108     0.08000
H2946       H  0.80023771  0.55614401  0.01390051     0.11700
H2947       H  0.78424536  0.57617900  0.04954465     0.11400
H2948       H  0.76166078  0.57675689  0.03896011     0.08000
C2949       C  0.63118988  0.64547931  0.94283457    -0.11100
C2950       C  0.63910240  0.65036769  0.93192449     0.06000
C2951       C  0.65223934  0.64496524  0.93007880    -0.09900
C2952       C  0.65719527  0.63476289  0.93872211    -0.11500
C2953       C  0.64902753  0.62953866  0.94921468    -0.01300
C2954       C  0.63605030  0.63508530  0.95129197    -0.10400
C2955       C  0.63346597  0.66047120  0.92206080     0.06100
H2956       H  0.65854902  0.64823167  0.92164666     0.08000
H2957       H  0.66718298  0.63055307  0.93681995     0.11500
H2958       H  0.62962286  0.63134426  0.95944791     0.11700
H2959       H  0.62117667  0.64958554  0.94479087     0.08000
C2960       C  0.61958119  0.66018651  0.91843310    -0.11100
C2961       C  0.61458121  0.66875969  0.90817923    -0.10400
C2962       C  0.62340373  0.67759115  0.90117135    -0.01300
C2963       C  0.63711850  0.67830492  0.90512590    -0.11500
C2964       C  0.64206632  0.66995285  0.91554744    -0.09900
H2965       H  0.61265708  0.65292242  0.92305878     0.08000
H2966       H  0.60397306  0.66796083  0.90526204     0.11700
H2967       H  0.64408022  0.68522088  0.90003096     0.11400
H2968       H  0.65270301  0.67077932  0.91832584     0.08000
C2969       C  0.60616686  0.51703218  0.97253880    -0.11100
C2970       C  0.60449844  0.50738493  0.98306950     0.06000
C2971       C  0.61306287  0.50831761  0.99459171    -0.09900
C2972       C  0.62282639  0.51874607  0.99561774    -0.11500
C2973       C  0.62401367  0.52861625  0.98530204    -0.01300
C2974       C  0.61565821  0.52760297  0.97373233    -0.10400
C2975       C  0.59357693  0.49675585  0.98216069     0.06100
H2976       H  0.61200400  0.50123584  0.00300739     0.08000
H2977       H  0.62913922  0.51935901  0.00466369     0.11500
H2978       H  0.61655720  0.53493323  0.96549760     0.11700
H2979       H  0.60013664  0.51646097  0.96331144     0.08000
C2980       C  0.58123680  0.49963352  0.97542671    -0.11100
C2981       C  0.57089735  0.48984821  0.97462348    -0.10400
C2982       C  0.57245176  0.47700809  0.98079411    -0.01300
C2983       C  0.58470952  0.47405596  0.98757505    -0.11500
C2984       C  0.59520496  0.48377006  0.98814452    -0.09900
H2985       H  0.57937697  0.50957842  0.97098657     0.08000
H2986       H  0.56152175  0.49247988  0.96943539     0.11700
H2987       H  0.58624435  0.46417911  0.99231354     0.11400
H2988       H  0.60461603  0.48103980  0.99319256     0.08000
C2989       C  0.77116177  0.41831040  0.50428342    -0.11100
C2990       C  0.76365636  0.43051431  0.50520485     0.06000
C2991       C  0.76962752  0.44260093  0.50014759    -0.09900
C2992       C  0.78280235  0.44256949  0.49475477    -0.11500
C2993       C  0.79032173  0.43041736  0.49402443    -0.01300
C2994       C  0.78426974  0.41825264  0.49867241    -0.10400
C2995       C  0.74988154  0.43072702  0.51174224     0.06100
H2996       H  0.76411811  0.45214657  0.50028284     0.08000
H2997       H  0.78703875  0.45208434  0.49102771     0.11500
H2998       H  0.78980677  0.40872347  0.49833086     0.11700
H2999       H  0.76709294  0.40881656  0.50823117     0.08000
C3000       C  0.74108288  0.41934521  0.51100963    -0.11100
C3001       C  0.72846869  0.41939628  0.51765119    -0.10400
C3002       C  0.72418945  0.43092023  0.52496312    -0.01300
C3003       C  0.73278137  0.44239587  0.52547471    -0.11500
C3004       C  0.74549907  0.44225892  0.51907845    -0.09900
H3005       H  0.74387718  0.41038056  0.50524096     0.08000
H3006       H  0.72198534  0.41045900  0.51692882     0.11700
H3007       H  0.72984231  0.45137630  0.53115854     0.11400
H3008       H  0.75201356  0.45112107  0.52019300     0.08000
C3009       C  0.89065625  0.37584582  0.41716378    -0.11100
C3010       C  0.88694067  0.36208609  0.41868983     0.06000
C3011       C  0.87767535  0.35847918  0.42899790    -0.09900
C3012       C  0.87183569  0.36857896  0.43725501    -0.11500
C3013       C  0.87529132  0.38242599  0.43543223    -0.01300
C3014       C  0.88493596  0.38585993  0.42540158    -0.10400
C3015       C  0.89198049  0.35187950  0.40875943     0.06100
H3016       H  0.87459272  0.34793051  0.43033534     0.08000
H3017       H  0.86454541  0.36555679  0.44495035     0.11500
H3018       H  0.88787634  0.39635063  0.42356288     0.11700
H3019       H  0.89786492  0.37890291  0.40938722     0.08000
C3020       C  0.89153559  0.35496463  0.39479130    -0.11100
C3021       C  0.89611509  0.34560865  0.38518743    -0.10400
C3022       C  0.90136774  0.33292181  0.38926813    -0.01300
C3023       C  0.90205094  0.32983406  0.40325866    -0.11500
C3024       C  0.89724884  0.33920015  0.41294263    -0.09900
H3025       H  0.88743064  0.36459857  0.39125803     0.08000
H3026       H  0.89557804  0.34837624  0.37451242     0.11700
H3027       H  0.90599926  0.32009725  0.40666994     0.11400
H3028       H  0.89775683  0.33661504  0.42366867     0.08000
C3029       C  0.89677452  0.50206234  0.44688242    -0.11100
C3030       C  0.89971379  0.51100112  0.45770429     0.06000
C3031       C  0.89344569  0.50861170  0.47041174    -0.09900
C3032       C  0.88467848  0.49743404  0.47226826    -0.11500
C3033       C  0.88222779  0.48829784  0.46154208    -0.01300
C3034       C  0.88825989  0.49079477  0.44882112    -0.10400
C3035       C  0.90949209  0.52253697  0.45575613     0.06100
H3036       H  0.89559545  0.51514054  0.47904733     0.08000
H3037       H  0.88023429  0.49564374  0.48220599     0.11500
H3038       H  0.88637147  0.48400990  0.44031290     0.11700
H3039       H  0.90105997  0.50373967  0.43686338     0.08000
C3040       C  0.92080016  0.52112886  0.44707840    -0.11100
C3041       C  0.93008832  0.53184316  0.44535696    -0.10400
C3042       C  0.92844212  0.54417343  0.45243399    -0.01300
C3043       C  0.91711796  0.54564840  0.46103371    -0.11500
C3044       C  0.90772312  0.53499856  0.46261572    -0.09900
H3045       H  0.92269325  0.51161931  0.44182373     0.08000
H3046       H  0.93876158  0.53031587  0.43875364     0.11700
H3047       H  0.91549858  0.55505796  0.46656914     0.11400
H3048       H  0.89902894  0.53658381  0.46916609     0.08000
C3049       C  0.06800334  0.50650336  0.27557118    -0.11100
C3050       C  0.07966831  0.49991600  0.27051723     0.06000
C3051       C  0.09139964  0.49960992  0.27880171    -0.09900
C3052       C  0.09157409  0.50594757  0.29156018    -0.11500
C3053       C  0.07994780  0.51252216  0.29653602    -0.01300
C3054       C  0.06811079  0.51261493  0.28847275    -0.10400
C3055       C  0.07968199  0.49340073  0.25672421     0.06100
H3056       H  0.10047145  0.49433404  0.27552857     0.08000
H3057       H  0.10078420  0.50552135  0.29762543     0.11500
H3058       H  0.05901940  0.51771796  0.29198164     0.11700
H3059       H  0.05883598  0.50719220  0.26947934     0.08000
C3060       C  0.06780449  0.48739603  0.25127056    -0.11100
C3061       C  0.06798981  0.48103223  0.23849220    -0.10400
C3062       C  0.08009457  0.48029615  0.23094846    -0.01300
C3063       C  0.09191417  0.48638524  0.23628279    -0.11500
C3064       C  0.09168271  0.49296420  0.24891654    -0.09900
H3065       H  0.05840351  0.48730455  0.25698448     0.08000
H3066       H  0.05872438  0.47636627  0.23468888     0.11700
H3067       H  0.10134416  0.48622920  0.23060959     0.11400
H3068       H  0.10094648  0.49779725  0.25249101     0.08000
C3069       C  0.17063026  0.61075658  0.38172956    -0.11100
C3070       C  0.16681035  0.59967237  0.38999449     0.06000
C3071       C  0.17197056  0.59890323  0.40336394    -0.09900
C3072       C  0.18028944  0.60932018  0.40854351    -0.11500
C3073       C  0.18345287  0.62077910  0.40050099    -0.01300
C3074       C  0.17880577  0.62122212  0.38694552    -0.10400
C3075       C  0.15637906  0.58980472  0.38511771     0.06100
H3076       H  0.16927429  0.59040717  0.40992146     0.08000
H3077       H  0.18372381  0.60868316  0.41901818     0.11500
H3078       H  0.18123972  0.62981869  0.38042546     0.11700
H3079       H  0.16673833  0.61168633  0.37143257     0.08000
C3080       C  0.14539904  0.58633730  0.39357794    -0.11100
C3081       C  0.13462074  0.57845647  0.38861637    -0.10400
C3082       C  0.13455512  0.57378532  0.37507292    -0.01300
C3083       C  0.14582952  0.57672322  0.36675889    -0.11500
C3084       C  0.15660682  0.58473470  0.37171318    -0.09900
H3085       H  0.14485473  0.59020390  0.40389660     0.08000
H3086       H  0.12623000  0.57621988  0.39539075     0.11700
H3087       H  0.14611140  0.57327135  0.35629113     0.11400
H3088       H  0.16500064  0.58718839  0.36499647     0.08000
C3089       C  0.01273749  0.56903091  0.40092875    -0.11100
C3090       C  0.00295870  0.55863834  0.40270472     0.06000
C3091       C  0.00471787  0.54623465  0.39568330    -0.09900
C3092       C  0.01607498  0.54420907  0.38734898    -0.11500
C3093       C  0.02603663  0.55443624  0.38604658    -0.01300
C3094       C  0.02419494  0.56689857  0.39282194    -0.10400
C3095       C  0.99131384  0.56056260  0.41224106     0.06100
H3096       H  0.99754868  0.53790860  0.39693224     0.08000
H3097       H  0.01729874  0.53446681  0.38230563     0.11500
H3098       H  0.03160175  0.57505477  0.39180783     0.11700
H3099       H  0.01158442  0.57884601  0.40583556     0.08000
C3100       C  0.99299672  0.56824218  0.42424779    -0.11100
C3101       C  0.98229175  0.56973255  0.43345644    -0.10400
C3102       C  0.96966916  0.56339488  0.43104452    -0.01300
C3103       C  0.96788936  0.55580864  0.41901853    -0.11500
C3104       C  0.97855210  0.55448696  0.40968055    -0.09900
H3105       H  0.00271457  0.57283893  0.42676394     0.08000
H3106       H  0.98404814  0.57555579  0.44267301     0.11700
H3107       H  0.95823858  0.55090216  0.41680734     0.11400
H3108       H  0.97676459  0.54871991  0.40044286     0.08000
C3109       C  0.99239110  0.73717413  0.60474903    -0.11100
C3110       C  0.99743858  0.74335689  0.59281505     0.06000
C3111       C  0.99597253  0.73633939  0.58041253    -0.09900
C3112       C  0.98956428  0.72357423  0.57990863    -0.11500
C3113       C  0.98443737  0.71737220  0.59180779    -0.01300
C3114       C  0.98595262  0.72436096  0.60424903    -0.10400
C3115       C  0.00416256  0.75706507  0.59317733     0.06100
H3116       H  0.99993111  0.74065257  0.57104687     0.08000
H3117       H  0.98866148  0.71863978  0.57010691     0.11500
H3118       H  0.98219378  0.71996941  0.61364387     0.11700
H3119       H  0.99323110  0.74233488  0.61446414     0.08000
C3120       C  0.00196843  0.76653874  0.58261393    -0.11100
C3121       C  0.00861077  0.77920146  0.58258798    -0.10400
C3122       C  0.01767469  0.78280011  0.59312600    -0.01300
C3123       C  0.01966386  0.77343457  0.60385701    -0.11500
C3124       C  0.01299496  0.76073740  0.60388090    -0.09900
H3125       H  0.99502285  0.76419696  0.57434889     0.08000
H3126       H  0.00659666  0.78612750  0.57423356     0.11700
H3127       H  0.02655319  0.77575682  0.61215601     0.11400
H3128       H  0.01502283  0.75365766  0.61212448     0.08000
C3129       C  0.90339286  0.61490064  0.63695931    -0.11100
C3130       C  0.90294551  0.61791384  0.65093845     0.06000
C3131       C  0.91282544  0.62680862  0.65641517    -0.09900
C3132       C  0.92274472  0.63278793  0.64798078    -0.11500
C3133       C  0.92312991  0.62973978  0.63399207    -0.01300
C3134       C  0.91338911  0.62066028  0.62862426    -0.10400
C3135       C  0.89195850  0.61196293  0.65955435     0.06100
H3136       H  0.91268928  0.62935787  0.66714781     0.08000
H3137       H  0.93016811  0.63969242  0.65240016     0.11500
H3138       H  0.91330620  0.61817546  0.61787992     0.11700
H3139       H  0.89601355  0.60799513  0.63245942     0.08000
C3140       C  0.87847040  0.61177224  0.65476312    -0.11100
C3141       C  0.86809007  0.60585629  0.66251310    -0.10400
C3142       C  0.87092091  0.59984770  0.67522479    -0.01300
C3143       C  0.88441015  0.60003112  0.68006925    -0.11500
C3144       C  0.89481194  0.60613605  0.67235734    -0.09900
H3145       H  0.87592692  0.61628313  0.64500024     0.08000
H3146       H  0.85785438  0.60582905  0.65840981     0.11700
H3147       H  0.88690542  0.59557669  0.68986305     0.11400
H3148       H  0.90512743  0.60606609  0.67627250     0.08000
C3149       C  0.95839960  0.62372293  0.50751923    -0.11100
C3150       C  0.95690661  0.60945565  0.50797314     0.06000
C3151       C  0.95764582  0.60275637  0.52060067    -0.09900
C3152       C  0.95950401  0.61015126  0.53258984    -0.11500
C3153       C  0.96056228  0.62446901  0.53228393    -0.01300
C3154       C  0.96017060  0.63118204  0.51958539    -0.10400
C3155       C  0.95440194  0.60140365  0.49544767     0.06100
H3156       H  0.95679691  0.59173730  0.52118901     0.08000
H3157       H  0.96005129  0.60457712  0.54210465     0.11500
H3158       H  0.96090735  0.64219303  0.51896986     0.11700
H3159       H  0.95784379  0.62911067  0.49788048     0.08000
C3160       C  0.94406987  0.59146637  0.49528059    -0.11100
C3161       C  0.94227586  0.58302739  0.48397411    -0.10400
C3162       C  0.95086843  0.58423506  0.47259062    -0.01300
C3163       C  0.96097456  0.59447087  0.47259996    -0.11500
C3164       C  0.96266900  0.60303544  0.48390383    -0.09900
H3165       H  0.93745704  0.59012716  0.50400530     0.08000
H3166       H  0.93434181  0.57532968  0.48432349     0.11700
H3167       H  0.96772650  0.59572268  0.46397716     0.11400
H3168       H  0.97073230  0.61060789  0.48382409     0.08000
loop_ 
_geom_bond_atom_site_label_1 
_geom_bond_atom_site_label_2 
_geom_bond_distance 
_geom_bond_site_symmetry_2 
_ccdc_geom_bond_type 
N1            N2   1.322       .  A
N1            C5   1.352       .  A
N1           Cu9   2.102       .  S
N2            C3   1.342       .  A
N2           Cu8   2.063       .  S
C3            C4   1.383       .  A
C3            H6   1.082       .  S
C4            C5   1.392       .  A
C4         C3133   1.486       .  S
C5            H7   1.082       .  S
Cu8          N11   2.062       .  S
Cu9          N19   2.103       .  S
Cu10         N12   2.075       .  S
Cu10         N18   2.077       .  S
N11          N12   1.319       .  A
N11          C15   1.341       .  A
N12          C13   1.348       .  A
C13          C14   1.390       .  A
C13          H16   1.081       .  S
C14          C15   1.386       .  A
C14        C3153   1.485       .  S
C15          H17   1.081       .  S
N18          N19   1.324       .  A
N18          C22   1.343       .  A
N19          C20   1.350       .  A
C20          C21   1.393       .  A
C20          H23   1.081       .  S
C21          C22   1.387       .  A
C21        C3113   1.494       .  S
C22          H24   1.080       .  S
N25          N26   1.321       .  A
N25          C29   1.349       .  A
N25         Cu33   2.086       .  S
N26          C27   1.341       .  A
N26         Cu32   2.064       .  S
C27          C28   1.384       .  A
C27          H30   1.081       .  S
C28          C29   1.391       .  A
C28        C3082   1.484       .  S
C29          H31   1.082       .  S
Cu32         N35   2.064       .  S
Cu33         N43   2.087       .  S
Cu34         N36   2.080       .  S
Cu34         N42   2.081       .  S
N35          N36   1.321       .  A
N35          C39   1.343       .  A
N36          C37   1.347       .  A
C37          C38   1.387       .  A
C37          H40   1.082       .  S
C38          C39   1.384       .  A
C38        C3093   1.479       .  S
C39          H41   1.082       .  S
N42          N43   1.324       .  A
N42          C46   1.346       .  A
N43          C44   1.346       .  A
C44          C45   1.386       .  A
C44          H47   1.082       .  S
C45          C46   1.385       .  A
C45        C3053   1.483       .  S
C46          H48   1.082       .  S
N49          N50   1.319       .  A
N49          C53   1.352       .  A
N49         Cu57   2.096       .  S
N50          C51   1.338       .  A
N50         Cu56   2.049       .  S
C51          C52   1.383       .  A
C51          H54   1.081       .  S
C52          C53   1.395       .  A
C52        C3013   1.488       .  S
C53          H55   1.082       .  S
Cu56         N59   2.049       .  S
Cu57         N67   2.099       .  S
Cu58         N60   2.088       .  S
Cu58         N66   2.091       .  S
N59          N60   1.319       .  A
N59          C63   1.339       .  A
N60          C61   1.351       .  A
C61          C62   1.391       .  A
C61          H64   1.082       .  S
C62          C63   1.380       .  A
C62        C3033   1.478       .  S
C63          H65   1.082       .  S
N66          N67   1.326       .  A
N66          C70   1.346       .  A
N67          C68   1.349       .  A
C68          C69   1.388       .  A
C68          H71   1.082       .  S
C69          C70   1.386       .  A
C69        C2993   1.488       .  S
C70          H72   1.082       .  S
C73          N74   1.358       .  A
C73          N78   1.359       .  A
C73        C3162   1.484       .  S
N74          C75   1.357       .  A
C75          N76   1.360       .  A
C75        C3042   1.483       .  S
N76          C77   1.360       .  A
C77          N78   1.360       .  A
C77        C3102   1.483       .  S
N79          N80   1.321       .  A
N79          C83   1.347       .  A
N79         Cu87   2.077       .  S
N80          C81   1.341       .  A
N80         Cu86   2.059       .  S
C81          C82   1.381       .  A
C81          H84   1.082       .  S
C82          C83   1.387       .  A
C82        C2953   1.476       .  S
C83          H85   1.082       .  S
Cu86         N89   2.060       .  S
Cu87         N97   2.079       .  S
Cu88         N90   2.082       .  S
Cu88         N96   2.084       .  S
N89          N90   1.321       .  A
N89          C93   1.341       .  A
N90          C91   1.349       .  A
C91          C92   1.388       .  A
C91          H94   1.082       .  S
C92          C93   1.382       .  A
C92        C2973   1.478       .  S
C93          H95   1.082       .  S
N96          N97   1.324       .  A
N96         C100   1.345       .  A
N97          C98   1.346       .  A
C98          C99   1.384       .  A
C98         H101   1.082       .  S
C99         C100   1.385       .  A
C99        C2933   1.480   1_556  S
C100        H102   1.082   1_556  S
N103        N104   1.320       .  A
N103        C107   1.349       .  A
N103       Cu111   2.082       .  S
N104        C105   1.340       .  A
N104       Cu110   2.053       .  S
C105        C106   1.380       .  A
C105        H108   1.082       .  S
C106        C107   1.389       .  A
C106       C2893   1.476       .  S
C107        H109   1.082       .  S
Cu110       N113   2.054       .  S
Cu111       N121   2.083       .  S
Cu112       N114   2.086       .  S
Cu112       N120   2.088       .  S
N113        N114   1.320       .  A
N113        C117   1.340       .  A
N114        C115   1.349       .  A
C115        C116   1.390       .  A
C115        H118   1.082       .  S
C116        C117   1.381       .  A
C116       C2922   1.478       .  S
C117        H119   1.082       .  S
N120        N121   1.325       .  A
N120        C124   1.347       .  A
N121        C122   1.345       .  A
C122        C123   1.385       .  A
C122        H125   1.082       .  S
C123        C124   1.387       .  A
C123       C2873   1.483       .  S
C124        H126   1.082       .  S
N127        N128   1.320       .  A
N127        C131   1.347       .  A
N127       Cu135   2.074       .  S
N128        C129   1.341       .  A
N128       Cu134   2.058       .  S
C129        C130   1.382       .  A
C129        H132   1.082       .  S
C130        C131   1.387       .  A
C130       C2833   1.474       .  S
C131        H133   1.082       .  S
Cu134       N137   2.060       .  S
Cu135       N145   2.075       .  S
Cu136       N138   2.082       .  S
Cu136       N144   2.083       .  S
N137        N138   1.321       .  A
N137        C141   1.341       .  A
N138        C139   1.348       .  A
C139        C140   1.388       .  A
C139        H142   1.082       .  S
C140        C141   1.382       .  A
C140       C2853   1.478       .  S
C141        H143   1.082       .  S
N144        N145   1.324       .  A
N144        C148   1.346       .  A
N145        C146   1.344       .  A
C146        C147   1.385       .  A
C146        H149   1.082       .  S
C147        C148   1.387       .  A
C147       C2813   1.482       .  S
C148        H150   1.082       .  S
C151        N152   1.360       .  A
C151        N156   1.360       .  A
C151       C2982   1.481       .  S
N152        C153   1.360       .  A
C153        N154   1.359       .  A
C153       C2913   1.479       .  S
N154        C155   1.358       .  A
C155        N156   1.358       .  A
C155       C2862   1.480       .  S
N157        N158   1.320       .  A
N157        C161   1.352       .  A
N157       Cu165   2.089       .  S
N158        C159   1.339       .  A
N158       Cu164   2.058       .  S
C159        C160   1.382       .  A
C159        H162   1.082       .  S
C160        C161   1.391       .  A
C160       C3022   1.482       .  S
C161        H163   1.082       .  S
Cu164       N167   2.058       .  S
Cu165       N175   2.091       .  S
Cu166       N168   2.087       .  S
Cu166       N174   2.089       .  S
N167        N168   1.319       .  A
N167        C171   1.341       .  A
N168        C169   1.350       .  A
C169        C170   1.392       .  A
C169        H172   1.082       .  S
C170        C171   1.384       .  A
C170       C2793   1.485       .  S
C171        H173   1.082       .  S
N174        N175   1.325       .  A
N174        C178   1.346       .  A
N175        C176   1.347       .  A
C176        C177   1.389       .  A
C176        H179   1.081       .  S
C177        C178   1.388       .  A
C177       C2773   1.490       .  S
C178        H180   1.081       .  S
N181        N182   1.320       .  A
N181        C185   1.350       .  A
N181       Cu189   2.081       .  S
N182        C183   1.340       .  A
N182       Cu188   2.058       .  S
C183        C184   1.381       .  A
C183        H186   1.082       .  S
C184        C185   1.388       .  A
C184       C2733   1.476       .  S
C185        H187   1.082       .  S
Cu188       N191   2.058       .  S
Cu189       N199   2.083       .  S
Cu190       N192   2.085       .  S
Cu190       N198   2.087       .  S
N191        N192   1.320       .  A
N191        C195   1.340       .  A
N192        C193   1.350       .  A
C193        C194   1.390       .  A
C193        H196   1.082       .  S
C194        C195   1.382       .  A
C194       C2753   1.481       .  S
C195        H197   1.082       .  S
N198        N199   1.325       .  A
N198        C202   1.347       .  A
N199        C200   1.344       .  A
C200        C201   1.383       .  A
C200        H203   1.082       .  S
C201        C202   1.384       .  A
C201       C2713   1.478       .  S
C202        H204   1.082       .  S
N205        N206   1.320       .  A
N205        C209   1.349       .  A
N205       Cu213   2.082       .  S
N206        C207   1.341       .  A
N206       Cu212   2.060       .  S
C207        C208   1.382       .  A
C207        H210   1.082       .  S
C208        C209   1.389       .  A
C208       C2902   1.480       .  S
C209        H211   1.082       .  S
Cu212       N215   2.061       .  S
Cu213       N223   2.084       .  S
Cu214       N216   2.092       .  S
Cu214       N222   2.093       .  S
N215        N216   1.321       .  A
N215        C219   1.341       .  A
N216        C217   1.351       .  A
C217        C218   1.389       .  A
C217        H220   1.082       .  S
C218        C219   1.380       .  A
C218       C2693   1.478       .  S
C219        H221   1.082       .  S
N222        N223   1.325       .  A
N222        C226   1.347       .  A
N223        C224   1.346       .  A
C224        C225   1.384       .  A
C224        H227   1.082       .  S
C225        C226   1.386       .  A
C225       C2673   1.483       .  S
C226        H228   1.082       .  S
C229        N230   1.361       .  A
C229        N234   1.359       .  A
C229       C2702   1.487       .  S
N230        C231   1.360       .  A
C231        N232   1.361       .  A
C231       C2762   1.485       .  S
N232        C233   1.359       .  A
C233        N234   1.359       .  A
C233       C2802   1.485       .  S
N235        N236   1.319       .  A
N235        C239   1.348       .  A
N235       Cu243   2.077       .  S
N236        C237   1.341       .  A
N236       Cu242   2.060       .  S
C237        C238   1.387       .  A
C237        H240   1.081       .  S
C238        C239   1.391       .  A
C238       C2642   1.486       .  S
C239        H241   1.082       .  S
Cu242       N245   2.060       .  S
Cu243       N253   2.078       .  S
Cu244       N246   2.087       .  S
Cu244       N252   2.088       .  S
N245        N246   1.321       .  A
N245        C249   1.341       .  A
N246        C247   1.349       .  A
C247        C248   1.389       .  A
C247        H250   1.082       .  S
C248        C249   1.381       .  A
C248       C2662   1.479       .  S
C249        H251   1.082       .  S
N252        N253   1.324       .  A
N252        C256   1.347       .  A
N253        C254   1.344       .  A
C254        C255   1.384       .  A
C254        H257   1.082       .  S
C255        C256   1.388       .  A
C255       C2613   1.483       .  S
C256        H258   1.082       .  S
N259        N260   1.321       .  A
N259        C263   1.346       .  A
N259       Cu267   2.081       .  S
N260        C261   1.343       .  A
N260       Cu266   2.063       .  S
C261        C262   1.386       .  A
C261        H264   1.081       .  S
C262        C263   1.390       .  A
C262       C2573   1.485       .  S
C263        H265   1.081       .  S
Cu266       N269   2.063       .  S
Cu267       N277   2.081       .  S
Cu268       N270   2.074       .  S
Cu268       N276   2.075       .  S
N269        N270   1.322       .  A
N269        C273   1.342       .  A
N270        C271   1.346       .  A
C271        C272   1.384       .  A
C271        H274   1.082       .  S
C272        C273   1.380       .  A
C272       C2602   1.470       .  S
C273        H275   1.082       .  S
N276        N277   1.323       .  A
N276        C280   1.344       .  A
N277        C278   1.346       .  A
C278        C279   1.386       .  A
C278        H281   1.082       .  S
C279        C280   1.385       .  A
C279       C2553   1.481       .  S
C280        H282   1.082       .  S
N283        N284   1.322       .  A
N283        C287   1.347       .  A
N283       Cu291   2.079       .  S
N284        C285   1.341       .  A
N284       Cu290   2.065       .  S
C285        C286   1.383       .  A
C285        H288   1.082       .  S
C286        C287   1.387       .  A
C286       C2513   1.478       .  S
C287        H289   1.082       .  S
Cu290       N293   2.065       .  S
Cu291       N301   2.080       .  S
Cu292       N294   2.067       .  S
Cu292       N300   2.067       .  S
N293        N294   1.320       .  A
N293        C297   1.343       .  A
N294        C295   1.344       .  A
C295        C296   1.385       .  A
C295        H298   1.082       .  S
C296        C297   1.385       .  A
C296       C2533   1.476       .  S
C297        H299   1.082       .  S
N300        N301   1.321       .  A
N300        C304   1.342       .  A
N301        C302   1.346       .  A
C302        C303   1.390       .  A
C302        H305   1.081       .  S
C303        C304   1.387       .  A
C303       C2493   1.487       .  S
C304        H306   1.081       .  S
C307        N308   1.355       .  A
C307        N312   1.357       .  A
C307       C2593   1.478       .  S
N308        C309   1.357       .  A
C309        N310   1.360       .  A
C309       C2542   1.479       .  S
N310        C311   1.361       .  A
C311        N312   1.358       .  A
C311       C2653   1.479       .  S
N313        N314   1.321       .  A
N313        C317   1.350       .  A
N313       Cu321   2.088       .  S
N314        C315   1.339       .  A
N314       Cu320   2.059       .  S
C315        C316   1.383       .  A
C315        H318   1.081       .  S
C316        C317   1.391       .  A
C316       C2453   1.484       .  S
C317        H319   1.082       .  S
Cu320       N323   2.060       .  S
Cu321       N331   2.090       .  S
Cu322       N324   2.078       .  S
Cu322       N330   2.080       .  S
N323        N324   1.320       .  A
N323        C327   1.342       .  A
N324        C325   1.348       .  A
C325        C326   1.387       .  A
C325        H328   1.082       .  S
C326        C327   1.382       .  A
C326       C2473   1.476       .  S
C327        H329   1.082       .  S
N330        N331   1.324       .  A
N330        C334   1.344       .  A
N331        C332   1.347       .  A
C332        C333   1.391       .  A
C332        H335   1.081       .  S
C333        C334   1.388       .  A
C333       C2433   1.491       .  S
C334        H336   1.081       .  S
N337        N338   1.320       .  A
N337        C341   1.348       .  A
N337       Cu345   2.081       .  S
N338        C339   1.340       .  A
N338       Cu344   2.048       .  S
C339        C340   1.380       .  A
C339        H342   1.082       .  S
C340        C341   1.388       .  A
C340       C2842   1.474       .  S
C341        H343   1.082       .  S
Cu344       N347   2.049       .  S
Cu345       N355   2.083       .  S
Cu346       N348   2.090       .  S
Cu346       N354   2.092       .  S
N347        N348   1.321       .  A
N347        C351   1.339       .  A
N348        C349   1.350       .  A
C349        C350   1.390       .  A
C349        H352   1.082       .  S
C350        C351   1.379       .  A
C350       C2413   1.476       .  S
C351        H353   1.082       .  S
N354        N355   1.325       .  A
N354        C358   1.348       .  A
N355        C356   1.345       .  A
C356        C357   1.384       .  A
C356        H359   1.082       .  S
C357        C358   1.386       .  A
C357       C2393   1.481       .  S
C358        H360   1.082       .  S
N361        N362   1.319       .  A
N361        C365   1.349       .  A
N361       Cu369   2.084       .  S
N362        C363   1.340       .  A
N362       Cu368   2.056       .  S
C363        C364   1.385       .  A
C363        H366   1.081       .  S
C364        C365   1.392       .  A
C364       C2582   1.486       .  S
C365        H367   1.081       .  S
Cu368       N371   2.056       .  S
Cu369       N379   2.086       .  S
Cu370       N372   2.092       .  S
Cu370       N378   2.093       .  S
N371        N372   1.321       .  A
N371        C375   1.340       .  A
N372        C373   1.351       .  A
C373        C374   1.391       .  A
C373        H376   1.082       .  S
C374        C375   1.381       .  A
C374       C2373   1.481       .  S
C375        H377   1.082       .  S
N378        N379   1.325       .  A
N378        C382   1.347       .  A
N379        C380   1.345       .  A
C380        C381   1.387       .  A
C380        H383   1.081       .  S
C381        C382   1.389       .  A
C381       C2362   1.490       .  S
C382        H384   1.081       .  S
C385        N386   1.359       .  A
C385        N390   1.358       .  A
C385       C2422   1.480       .  S
N386        C387   1.360       .  A
C387        N388   1.360       .  A
C387       C2382   1.480       .  S
N388        C389   1.360       .  A
C389        N390   1.358       .  A
C389       C2482   1.484       .  S
N391        N392   1.320       .  A
N391        C395   1.346       .  A
N391       Cu399   2.076       .  S
N392        C393   1.344       .  A
N392       Cu398   2.068       .  S
C393        C394   1.388       .  A
C393        H396   1.081       .  S
C394        C395   1.390       .  A
C394       C2313   1.487       .  S
C395        H397   1.081       .  S
Cu398       N401   2.069       .  S
Cu399       N409   2.077       .  S
Cu400       N402   2.089       .  S
Cu400       N408   2.090       .  S
N401        N402   1.321       .  A
N401        C405   1.342       .  A
N402        C403   1.349       .  A
C403        C404   1.392       .  A
C403        H406   1.081       .  S
C404        C405   1.387       .  A
C404       C2333   1.490       .  S
C405        H407   1.081       .  S
N408        N409   1.323       .  A
N408        C412   1.347       .  A
N409        C410   1.345       .  A
C410        C411   1.387       .  A
C410        H413   1.081       .  S
C411        C412   1.390       .  A
C411       C2293   1.490       .  S
C412        H414   1.081       .  S
N415        N416   1.320       .  A
N415        C419   1.348       .  A
N415       Cu423   2.079       .  S
N416        C417   1.341       .  A
N416       Cu422   2.068       .  S
C417        C418   1.386       .  A
C417        H420   1.081       .  S
C418        C419   1.390       .  A
C418       C2742   1.486       .  S
C419        H421   1.081       .  S
Cu422       N425   2.068       .  S
Cu423       N433   2.080       .  S
Cu424       N426   2.078       .  S
Cu424       N432   2.079       .  S
N425        N426   1.320       .  A
N425        C429   1.342       .  A
N426        C427   1.348       .  A
C427        C428   1.388       .  A
C427        H430   1.082       .  S
C428        C429   1.385       .  A
C428       C2273   1.483       .  S
C429        H431   1.082       .  S
N432        N433   1.323       .  A
N432        C436   1.344       .  A
N433        C434   1.345       .  A
C434        C435   1.389       .  A
C434        H437   1.081       .  S
C435        C436   1.388       .  A
C435       C2253   1.488       .  S
C436        H438   1.081       .  S
N439        N440   1.320       .  A
N439        C443   1.350       .  A
N439       Cu447   2.084       .  S
N440        C441   1.339       .  A
N440       Cu446   2.056       .  S
C441        C442   1.382       .  A
C441        H444   1.081       .  S
C442        C443   1.390       .  A
C442       C2462   1.481       .  S
C443        H445   1.082       .  S
Cu446       N449   2.055       .  S
Cu447       N457   2.085       .  S
Cu448       N450   2.078       .  S
Cu448       N456   2.080       .  S
N449        N450   1.320       .  A
N449        C453   1.341       .  A
N450        C451   1.348       .  A
C451        C452   1.389       .  A
C451        H454   1.082       .  S
C452        C453   1.382       .  A
C452       C2233   1.478       .  S
C453        H455   1.082       .  S
N456        N457   1.323       .  A
N456        C460   1.345       .  A
N457        C458   1.345       .  A
C458        C459   1.389       .  A
C458        H461   1.081       .  S
C459        C460   1.388       .  A
C459       C2213   1.489       .  S
C460        H462   1.081       .  S
C463        N464   1.363       .  A
C463        N468   1.358       .  A
C463       C2282   1.486       .  S
N464        C465   1.365       .  A
C465        N466   1.360       .  A
C465       C2342   1.488       .  S
N466        C467   1.357       .  A
C467        N468   1.355       .  A
C467       C2242   1.482       .  S
N469        N470   1.319       .  A
N469        C473   1.347       .  A
N469       Cu477   2.078       .  S
N470        C471   1.340       .  A
N470       Cu476   2.053       .  S
C471        C472   1.385       .  A
C471        H474   1.081       .  S
C472        C473   1.391       .  A
C472       C2522   1.484       .  S
C473        H475   1.081       .  S
Cu476       N479   2.053       .  S
Cu477       N487   2.080       .  S
Cu478       N480   2.085       .  S
Cu478       N486   2.086       .  S
N479        N480   1.321       .  A
N479        C483   1.340       .  A
N480        C481   1.349       .  A
C481        C482   1.388       .  A
C481        H484   1.082       .  S
C482        C483   1.380       .  A
C482       C2193   1.476       .  S
C483        H485   1.082       .  S
N486        N487   1.324       .  A
N486        C490   1.347       .  A
N487        C488   1.344       .  A
C488        C489   1.387       .  A
C488        H491   1.081       .  S
C489        C490   1.389       .  A
C489       C2173   1.488       .  S
C490        H492   1.081       .  S
N493        N494   1.319       .  A
N493        C497   1.348       .  A
N493       Cu501   2.091       .  S
N494        C495   1.341       .  A
N494       Cu500   2.053       .  S
C495        C496   1.386       .  A
C495        H498   1.081       .  S
C496        C497   1.394       .  A
C496       C2322   1.490       .  S
C497        H499   1.081       .  S
Cu500       N503   2.053       .  S
Cu501       N511   2.093       .  S
Cu502       N504   2.090       .  S
Cu502       N510   2.092       .  S
N503        N504   1.321       .  A
N503        C507   1.339       .  A
N504        C505   1.351       .  A
C505        C506   1.390       .  A
C505        H508   1.082       .  S
C506        C507   1.379       .  A
C506       C2153   1.477       .  S
C507        H509   1.082       .  S
N510        N511   1.326       .  A
N510        C514   1.347       .  A
N511        C512   1.347       .  A
C512        C513   1.386       .  A
C512        H515   1.082       .  S
C513        C514   1.386       .  A
C513       C2133   1.485       .  S
C514        H516   1.082       .  S
N517        N518   1.321       .  A
N517        C521   1.348       .  A
N517       Cu525   2.082       .  S
N518        C519   1.342       .  A
N518       Cu524   2.063       .  S
C519        C520   1.384       .  A
C519        H522   1.082       .  S
C520        C521   1.389       .  A
C520       C3073   1.481       .  S
C521        H523   1.082       .  S
Cu524       N527   2.062       .  S
Cu525       N535   2.083       .  S
Cu526       N528   2.081       .  S
Cu526       N534   2.082       .  S
N527        N528   1.321       .  A
N527        C531   1.342       .  A
N528        C529   1.348       .  A
C529        C530   1.387       .  A
C529        H532   1.082       .  S
C530        C531   1.383       .  A
C530       C2113   1.478       .  S
C531        H533   1.082       .  S
N534        N535   1.324       .  A
N534        C538   1.345       .  A
N535        C536   1.346       .  A
C536        C537   1.386       .  A
C536        H539   1.082       .  S
C537        C538   1.386       .  A
C537       C2093   1.484       .  S
C538        H540   1.082       .  S
C541        N542   1.359       .  A
C541        N546   1.358       .  A
C541       C2122   1.479       .  S
N542        C543   1.361       .  A
C543        N544   1.360       .  A
C543       C2202   1.481       .  S
N544        C545   1.358       .  A
C545        N546   1.356       .  A
C545       C2162   1.479       .  S
N547        N548   1.321       .  A
N547        C551   1.349       .  A
N547       Cu555   2.087       .  S
N548        C549   1.343       .  A
N548       Cu554   2.068       .  S
C549        C550   1.385       .  A
C549        H552   1.081       .  S
C550        C551   1.390       .  A
C550       C3142   1.487       .  S
C551        H553   1.082       .  S
Cu554       N557   2.067       .  S
Cu555       N565   2.087       .  S
Cu556       N558   2.082       .  S
Cu556       N564   2.084       .  S
N557        N558   1.321       .  A
N557        C561   1.342       .  A
N558        C559   1.349       .  A
C559        C560   1.388       .  A
C559        H562   1.082       .  S
C560        C561   1.383       .  A
C560       C2073   1.480       .  S
C561        H563   1.082       .  S
N564        N565   1.324       .  A
N564        C568   1.347       .  A
N565        C566   1.346       .  A
C566        C567   1.385       .  A
C566        H569   1.082       .  S
C567        C568   1.385       .  A
C567       C2053   1.481       .  S
C568        H570   1.082       .  S
N571        N572   1.321       .  A
N571        C575   1.350       .  A
N571       Cu579   2.088       .  S
N572        C573   1.340       .  A
N572       Cu578   2.061       .  S
C573        C574   1.383       .  A
C573        H576   1.082       .  S
C574        C575   1.390       .  A
C574       C2633   1.482       .  S
C575        H577   1.082       .  S
Cu578       N581   2.061       .  S
Cu579       N589   2.090       .  S
Cu580       N582   2.077       .  S
Cu580       N588   2.078       .  S
N581        N582   1.320       .  A
N581        C585   1.341       .  A
N582        C583   1.348       .  A
C583        C584   1.387       .  A
C583        H586   1.082       .  S
C584        C585   1.382       .  A
C584       C2033   1.476       .  S
C585        H587   1.082       .  S
N588        N589   1.325       .  A
N588        C592   1.345       .  A
N589        C590   1.347       .  A
C590        C591   1.386       .  A
C590        H593   1.082       .  S
C591        C592   1.383       .  A
C591       C2013   1.481       .  S
C592        H594   1.082       .  S
N595        N596   1.320       .  A
N595        C599   1.347       .  A
N595       Cu603   2.073       .  S
N596        C597   1.341       .  A
N596       Cu602   2.060       .  S
C597        C598   1.382       .  A
C597        H600   1.082       .  S
C598        C599   1.387       .  A
C598       C2962   1.476       .  S
C599        H601   1.082       .  S
Cu602       N605   2.061       .  S
Cu603       N613   2.075       .  S
Cu604       N606   2.091       .  S
Cu604       N612   2.092       .  S
N605        N606   1.322       .  A
N605        C609   1.342       .  A
N606        C607   1.349       .  A
C607        C608   1.389       .  A
C607        H610   1.082       .  S
C608        C609   1.382       .  A
C608       C1993   1.480       .  S
C609        H611   1.082       .  S
N612        N613   1.324       .  A
N612        C616   1.348       .  A
N613        C614   1.344       .  A
C614        C615   1.383       .  A
C614        H617   1.082       .  S
C615        C616   1.388       .  A
C615       C1973   1.482       .  S
C616        H618   1.082       .  S
C619        N620   1.360       .  A
C619        N624   1.358       .  A
C619       C2002   1.480       .  S
N620        C621   1.360       .  A
C621        N622   1.360       .  A
C621       C2082   1.484       .  S
N622        C623   1.358       .  A
C623        N624   1.359       .  A
C623       C2042   1.484       .  S
N625        N626   1.323       .  A
N625        C629   1.349       .  A
N625       Cu633   2.089       .  S
N626        C627   1.344       .  A
N626       Cu632   2.074       .  S
C627        C628   1.383       .  A
C627        H630   1.082       .  S
C628        C629   1.387       .  A
C628       C1942   1.480       .  S
C629        H631   1.082       .  S
Cu632       N635   2.074       .  S
Cu633       N643   2.090       .  S
Cu634       N636   2.076       .  S
Cu634       N642   2.078       .  S
N635        N636   1.321       .  A
N635        C639   1.344       .  A
N636        C637   1.347       .  A
C637        C638   1.387       .  A
C637        H640   1.082       .  S
C638        C639   1.387       .  A
C638       C1953   1.483       .  S
C639        H641   1.082       .  S
N642        N643   1.323       .  A
N642        C646   1.345       .  A
N643        C644   1.348       .  A
C644        C645   1.388       .  A
C644        H647   1.082       .  S
C645        C646   1.385       .  A
C645       C2142   1.485       .  S
C646        H648   1.082       .  S
N649        N650   1.320       .  A
N649        C653   1.346       .  A
N649       Cu657   2.076       .  S
N650        C651   1.340       .  A
N650       Cu656   2.058       .  S
C651        C652   1.386       .  A
C651        H654   1.080       .  S
C652        C653   1.390       .  A
C652       C1902   1.485       .  S
C653        H655   1.081       .  S
Cu656       N659   2.058       .  S
Cu657       N667   2.078       .  S
Cu658       N660   2.077       .  S
Cu658       N666   2.079       .  S
N659        N660   1.320       .  A
N659        C663   1.341       .  A
N660        C661   1.347       .  A
C661        C662   1.387       .  A
C661        H664   1.082       .  S
C662        C663   1.383       .  A
C662       C1913   1.477       .  S
C663        H665   1.082       .  S
N666        N667   1.323       .  A
N666        C670   1.345       .  A
N667        C668   1.346       .  A
C668        C669   1.385       .  A
C668        H671   1.082       .  S
C669        C670   1.385       .  A
C669       C2682   1.481       .  S
C670        H672   1.082       .  S
N673        N674   1.319       .  A
N673        C677   1.348       .  A
N673       Cu681   2.082       .  S
N674        C675   1.341       .  A
N674       Cu680   2.060       .  S
C675        C676   1.387       .  A
C675        H678   1.081       .  S
C676        C677   1.393       .  A
C676       C1853   1.489       .  S
C677        H679   1.081       .  S
Cu680       N683   2.060       .  S
Cu681       N691   2.084       .  S
Cu682       N684   2.084       .  S
Cu682       N690   2.085       .  S
N683        N684   1.320       .  A
N683        C687   1.341       .  A
N684        C685   1.348       .  A
C685        C686   1.392       .  A
C685        H688   1.081       .  S
C686        C687   1.386       .  A
C686       C1873   1.489       .  S
C687        H689   1.080       .  S
N690        N691   1.324       .  A
N690        C694   1.347       .  A
N691        C692   1.345       .  A
C692        C693   1.386       .  A
C692        H695   1.082       .  S
C693        C694   1.386       .  A
C693       C2022   1.483       .  S
C694        H696   1.082       .  S
C697        N698   1.356       .  A
C697        N702   1.356       .  A
C697       C1922   1.480       .  S
N698        C699   1.358       .  A
C699        N700   1.363       .  A
C699       C1882   1.485       .  S
N700        C701   1.362       .  A
C701        N702   1.359       .  A
C701       C1962   1.484       .  S
N703        N704   1.321       .  A
N703        C707   1.346       .  A
N703       Cu711   2.078       .  S
N704        C705   1.343       .  A
N704       Cu710   2.063       .  S
C705        C706   1.382       .  A
C705        H708   1.082       .  S
C706        C707   1.387       .  A
C706       C1822   1.476       .  S
C707        H709   1.082       .  S
Cu710       N713   2.064       .  S
Cu711       N721   2.079       .  S
Cu712       N714   2.078       .  S
Cu712       N720   2.079       .  S
N713        N714   1.320       .  A
N713        C717   1.341       .  A
N714        C715   1.347       .  A
C715        C716   1.391       .  A
C715        H718   1.081       .  S
C716        C717   1.387       .  A
C716       C1833   1.488       .  S
C717        H719   1.080       .  S
N720        N721   1.323       .  A
N720        C724   1.345       .  A
N721        C722   1.345       .  A
C722        C723   1.386       .  A
C722        H725   1.082       .  S
C723        C724   1.385       .  A
C723       C2722   1.481       .  S
C724        H726   1.082       .  S
N727        N728   1.319       .  A
N727        C731   1.350       .  A
N727       Cu735   2.090       .  S
N728        C729   1.339       .  A
N728       Cu734   2.049       .  S
C729        C730   1.384       .  A
C729        H732   1.081       .  S
C730        C731   1.394       .  A
C730       C1773   1.487       .  S
C731        H733   1.081       .  S
Cu734       N737   2.049       .  S
Cu735       N745   2.092       .  S
Cu736       N738   2.080       .  S
Cu736       N744   2.082       .  S
N737        N738   1.319       .  A
N737        C741   1.339       .  A
N738        C739   1.348       .  A
C739        C740   1.389       .  A
C739        H742   1.082       .  S
C740        C741   1.381       .  A
C740       C1793   1.476       .  S
C741        H743   1.082       .  S
N744        N745   1.324       .  A
N744        C748   1.345       .  A
N745        C746   1.347       .  A
C746        C747   1.390       .  A
C746        H749   1.081       .  S
C747        C748   1.388       .  A
C747       C2353   1.491       .  S
C748        H750   1.081       .  S
N751        N752   1.321       .  A
N751        C755   1.346       .  A
N751       Cu759   2.080       .  S
N752        C753   1.342       .  A
N752       Cu758   2.058       .  S
C753        C754   1.381       .  A
C753        H756   1.082       .  S
C754        C755   1.387       .  A
C754       C1733   1.474       .  S
C755        H757   1.082       .  S
Cu758       N761   2.059       .  S
Cu759       N769   2.081       .  S
Cu760       N762   2.078       .  S
Cu760       N768   2.079       .  S
N761        N762   1.320       .  A
N761        C765   1.340       .  A
N762        C763   1.347       .  A
C763        C764   1.391       .  A
C763        H766   1.081       .  S
C764        C765   1.386       .  A
C764       C1753   1.487       .  S
C765        H767   1.081       .  S
N768        N769   1.323       .  A
N768        C772   1.345       .  A
N769        C770   1.346       .  A
C770        C771   1.387       .  A
C770        H773   1.082       .  S
C771        C772   1.386       .  A
C771       C2062   1.484       .  S
C772        H774   1.082       .  S
C775        N776   1.356       .  A
C775        N780   1.360       .  A
C775       C1762   1.482       .  S
N776        C777   1.355       .  A
C777        N778   1.357       .  A
C777       C1802   1.479       .  S
N778        C779   1.360       .  A
C779        N780   1.361       .  A
C779       C1842   1.484       .  S
N781        N782   1.321       .  A
N781        C785   1.350       .  A
N781       Cu789   2.087       .  S
N782        C783   1.340       .  A
N782       Cu788   2.057       .  S
C783        C784   1.380       .  A
C783        H786   1.082       .  S
C784        C785   1.388       .  A
C784       C1782   1.476       .  S
C785        H787   1.082       .  S
Cu788       N791   2.057       .  S
Cu789       N799   2.089       .  S
Cu790       N792   2.091       .  S
Cu790       N798   2.093       .  S
N791        N792   1.320       .  A
N791        C795   1.341       .  A
N792        C793   1.350       .  A
C793        C794   1.392       .  A
C793        H796   1.082       .  S
C794        C795   1.383       .  A
C794       C1713   1.484       .  S
C795        H797   1.082       .  S
N798        N799   1.325       .  A
N798        C802   1.347       .  A
N799        C800   1.347       .  A
C800        C801   1.386       .  A
C800        H803   1.082       .  S
C801        C802   1.387       .  A
C801       C3002   1.485       .  S
C802        H804   1.082       .  S
N805        N806   1.319       .  A
N805        C809   1.343       .  A
N805       Cu813   2.064       .  S
N806        C807   1.343       .  A
N806       Cu812   2.061       .  S
C807        C808   1.385       .  A
C807        H810   1.082       .  S
C808        C809   1.386       .  A
C808       C1893   1.477       .  S
C809        H811   1.082       .  S
Cu812       N815   2.062       .  S
Cu813       N823   2.065       .  S
Cu814       N816   2.085       .  S
Cu814       N822   2.085       .  S
N815        N816   1.321       .  A
N815        C819   1.341       .  A
N816        C817   1.347       .  A
C817        C818   1.391       .  A
C817        H820   1.081       .  S
C818        C819   1.385       .  A
C818       C1693   1.485       .  S
C819        H821   1.081       .  S
N822        N823   1.322       .  A
N822        C826   1.346       .  A
N823        C824   1.342       .  A
C824        C825   1.385       .  A
C824        H827   1.081       .  S
C825        C826   1.390       .  A
C825       C2502   1.486       .  S
C826        H828   1.081       .  S
N829        N830   1.322       .  A
N829        C833   1.347       .  A
N829       Cu837   2.078       .  S
N830        C831   1.343       .  A
N830       Cu836   2.070       .  S
C831        C832   1.383       .  A
C831        H834   1.082       .  S
C832        C833   1.386       .  A
C832       C1653   1.477       .  S
C833        H835   1.082       .  S
Cu836       N839   2.070       .  S
Cu837       N847   2.079       .  S
Cu838       N840   2.077       .  S
Cu838       N846   2.077       .  S
N839        N840   1.322       .  A
N839        C843   1.343       .  A
N840        C841   1.347       .  A
C841        C842   1.385       .  A
C841        H844   1.082       .  S
C842        C843   1.383       .  A
C842       C1673   1.477       .  S
C843        H845   1.082       .  S
N846        N847   1.324       .  A
N846        C850   1.346       .  A
N847        C848   1.345       .  A
C848        C849   1.382       .  A
C848        H851   1.082       .  S
C849        C850   1.382       .  A
C849       C2822   1.473       .  S
C850        H852   1.082       .  S
C853        N854   1.359       .  A
C853        N858   1.362       .  A
C853       C1722   1.481       .  S
N854        C855   1.359       .  A
C855        N856   1.357       .  A
C855       C1702   1.483       .  S
N856        C857   1.358       .  A
C857        N858   1.361       .  A
C857       C1682   1.484       .  S
N859        N860   1.319       .  A
N859        C863   1.350       .  A
N859       Cu867   2.089       .  S
N860        C861   1.339       .  A
N860       Cu866   2.057       .  S
C861        C862   1.386       .  A
C861        H864   1.080       .  S
C862        C863   1.394       .  A
C862       C1613   1.489       .  S
C863        H865   1.081       .  S
Cu866       N869   2.056       .  S
Cu867       N877   2.091       .  S
Cu868       N870   2.080       .  S
Cu868       N876   2.082       .  S
N869        N870   1.320       .  A
N869        C873   1.340       .  A
N870        C871   1.349       .  A
C871        C872   1.389       .  A
C871        H874   1.082       .  S
C872        C873   1.382       .  A
C872       C1633   1.478       .  S
C873        H875   1.082       .  S
N876        N877   1.324       .  A
N876        C880   1.345       .  A
N877        C878   1.346       .  A
C878        C879   1.389       .  A
C878        H881   1.081       .  S
C879        C880   1.387       .  A
C879       C2442   1.490       .  S
C880        H882   1.081       .  S
N883        N884   1.320       .  A
N883        C887   1.348       .  A
N883       Cu891   2.082       .  S
N884        C885   1.342       .  A
N884       Cu890   2.060       .  S
C885        C886   1.382       .  A
C885        H888   1.082       .  S
C886        C887   1.388       .  A
C886       C1662   1.477       .  S
C887        H889   1.082       .  S
Cu890       N893   2.060       .  S
Cu891       N901   2.083       .  S
Cu892       N894   2.090       .  S
Cu892       N900   2.092       .  S
N893        N894   1.321       .  A
N893        C897   1.340       .  A
N894        C895   1.351       .  A
C895        C896   1.389       .  A
C895        H898   1.082       .  S
C896        C897   1.381       .  A
C896       C1593   1.480       .  S
C897        H899   1.082       .  S
N900        N901   1.325       .  A
N900        C904   1.347       .  A
N901        C902   1.346       .  A
C902        C903   1.384       .  A
C902        H905   1.082       .  S
C903        C904   1.386       .  A
C903       C2102   1.481       .  S
C904        H906   1.082       .  S
N907        N908   1.320       .  A
N907        C911   1.348       .  A
N907       Cu915   2.082       .  S
N908        C909   1.342       .  A
N908       Cu914   2.062       .  S
C909        C910   1.383       .  A
C909        H912   1.082       .  S
C910        C911   1.389       .  A
C910       C1553   1.480       .  S
C911        H913   1.082       .  S
Cu914       N917   2.062       .  S
Cu915       N925   2.083       .  S
Cu916       N918   2.089       .  S
Cu916       N924   2.090       .  S
N917        N918   1.322       .  A
N917        C921   1.341       .  A
N918        C919   1.350       .  A
C919        C920   1.389       .  A
C919        H922   1.082       .  S
C920        C921   1.382       .  A
C920       C1573   1.480       .  S
C921        H923   1.082       .  S
N924        N925   1.325       .  A
N924        C928   1.348       .  A
N925        C926   1.345       .  A
C926        C927   1.383       .  A
C926        H929   1.082       .  S
C927        C928   1.386       .  A
C927       C1982   1.481       .  S
C928        H930   1.082       .  S
C931        N932   1.360       .  A
C931        N936   1.359       .  A
C931       C1582   1.481       .  S
N932        C933   1.360       .  A
C933        N934   1.360       .  A
C933       C1642   1.483       .  S
N934        C935   1.358       .  A
C935        N936   1.360       .  A
C935       C1602   1.483       .  S
N937        N938   1.320       .  A
N937        C941   1.347       .  A
N937       Cu945   2.077       .  S
N938        C939   1.341       .  A
N938       Cu944   2.057       .  S
C939        C940   1.383       .  A
C939        H942   1.082       .  S
C940        C941   1.389       .  A
C940       C1522   1.480       .  S
C941        H943   1.082       .  S
Cu944       N947   2.057       .  S
Cu945       N955   2.079       .  S
Cu946       N948   2.087       .  S
Cu946       N954   2.089       .  S
N947        N948   1.321       .  A
N947        C951   1.340       .  A
N948        C949   1.350       .  A
C949        C950   1.390       .  A
C949        H952   1.082       .  S
C950        C951   1.382       .  A
C950       C1533   1.482       .  S
C951        H953   1.081       .  S
N954        N955   1.324       .  A
N954        C958   1.347       .  A
N955        C956   1.344       .  A
C956        C957   1.384       .  A
C956        H959   1.082       .  S
C957        C958   1.387       .  A
C957       C2882   1.482       .  S
C958        H960   1.082       .  S
N961        N962   1.320       .  A
N961        C965   1.349       .  A
N961       Cu969   2.088       .  S
N962        C963   1.341       .  A
N962       Cu968   2.059       .  S
C963        C964   1.383       .  A
C963        H966   1.082       .  S
C964        C965   1.391       .  A
C964       C1562   1.483       .  S
C965        H967   1.082       .  S
Cu968       N971   2.059       .  S
Cu969       N979   2.089       .  S
Cu970       N972   2.087       .  S
Cu970       N978   2.089       .  S
N971        N972   1.320       .  A
N971        C975   1.340       .  A
N972        C973   1.349       .  A
C973        C974   1.393       .  A
C973        H976   1.081       .  S
C974        C975   1.386       .  A
C974       C1493   1.489       .  S
C975        H977   1.081       .  S
N978        N979   1.324       .  A
N978        C982   1.346   1_556  A
N979        C980   1.346       .  A
C980        C981   1.389   1_556  A
C980        H983   1.081       .  S
C981        C982   1.389       .  A
C981       C2302   1.491       .  S
C982        H984   1.081       .  S
N985        N986   1.320       .  A
N985        C989   1.347       .  A
N985       Cu993   2.075       .  S
N986        C987   1.342       .  A
N986       Cu992   2.061       .  S
C987        C988   1.383       .  A
C987        H990   1.082       .  S
C988        C989   1.387       .  A
C988       C1813   1.477       .  S
C989        H991   1.082       .  S
Cu992       N995   2.062       .  S
Cu993      N1003   2.077       .  S
Cu994       N996   2.086       .  S
Cu994      N1002   2.087       .  S
N995        N996   1.321       .  A
N995        C999   1.342       .  A
N996        C997   1.348       .  A
C997        C998   1.389       .  A
C997       H1000   1.082       .  S
C998        C999   1.383       .  A
C998       C1482   1.481       .  S
C999       H1001   1.082       .  S
N1002      N1003   1.324       .  A
N1002      C1006   1.347       .  A
N1003      C1004   1.344       .  A
C1004      C1005   1.383       .  A
C1004      H1007   1.082       .  S
C1005      C1006   1.386       .  A
C1005      C2622   1.479   1_545  S
C1006      H1008   1.082       .  S
C1009      N1010   1.361       .  A
C1009      N1014   1.358       .  A
C1009      C1473   1.479       .  S
N1010      C1011   1.363       .  A
C1011      N1012   1.360       .  A
C1011      C1502   1.487       .  S
N1012      C1013   1.358       .  A
C1013      N1014   1.355       .  A
C1013      C1542   1.476       .  S
N1015      N1016   1.320       .  A
N1015      C1019   1.346       .  A
N1015     Cu1023   2.074       .  S
N1016      C1017   1.342       .  A
N1016     Cu1022   2.058       .  S
C1017      C1018   1.383       .  A
C1017      H1020   1.082       .  S
C1018      C1019   1.388       .  A
C1018      C1742   1.478       .  S
C1019      H1021   1.082       .  S
Cu1022     N1025   2.059       .  S
Cu1023     N1033   2.076       .  S
Cu1024     N1026   2.086       .  S
Cu1024     N1032   2.087       .  S
N1025      N1026   1.321       .  A
N1025      C1029   1.340       .  A
N1026      C1027   1.350       .  A
C1027      C1028   1.389       .  A
C1027      H1030   1.082       .  S
C1028      C1029   1.382       .  A
C1028      C1453   1.480       .  S
C1029      H1031   1.081       .  S
N1032      N1033   1.323       .  A
N1032      C1036   1.346       .  A
N1033      C1034   1.343       .  A
C1034      C1035   1.387       .  A
C1034      H1037   1.081       .  S
C1035      C1036   1.390       .  A
C1035      C2222   1.489       .  S
C1036      H1038   1.081       .  S
N1039      N1040   1.321       .  A
N1039      C1043   1.347       .  A
N1039     Cu1047   2.085       .  S
N1040      C1041   1.344       .  A
N1040     Cu1046   2.066       .  S
C1041      C1042   1.384       .  A
C1041      H1044   1.082       .  S
C1042      C1043   1.389       .  A
C1042      C1413   1.481       .  S
C1043      H1045   1.082       .  S
Cu1046     N1049   2.067       .  S
Cu1047     N1057   2.086       .  S
Cu1048     N1050   2.083       .  S
Cu1048     N1056   2.083       .  S
N1049      N1050   1.321       .  A
N1049      C1053   1.341       .  A
N1050      C1051   1.348       .  A
C1051      C1052   1.391       .  A
C1051      H1054   1.081       .  S
C1052      C1053   1.387       .  A
C1052      C1442   1.488       .  S
C1053      H1055   1.081       .  S
N1056      N1057   1.324       .  A
N1056      C1060   1.347       .  A
N1057      C1058   1.346       .  A
C1058      C1059   1.387       .  A
C1058      H1061   1.082       .  S
C1059      C1060   1.386       .  A
C1059      C3062   1.484       .  S
C1060      H1062   1.082       .  S
N1063      N1064   1.320       .  A
N1063      C1067   1.349       .  A
N1063     Cu1071   2.083       .  S
N1064      C1065   1.342       .  A
N1064     Cu1070   2.064       .  S
C1065      C1066   1.384       .  A
C1065      H1068   1.081       .  S
C1066      C1067   1.390       .  A
C1066      C1933   1.484       .  S
C1067      H1069   1.082       .  S
Cu1070     N1073   2.064       .  S
Cu1071     N1081   2.084       .  S
Cu1072     N1074   2.078       .  S
Cu1072     N1080   2.079       .  S
N1073      N1074   1.320       .  A
N1073      C1077   1.341       .  A
N1074      C1075   1.347       .  A
C1075      C1076   1.391       .  A
C1075      H1078   1.081       .  S
C1076      C1077   1.387       .  A
C1076      C1393   1.488       .  S
C1077      H1079   1.081       .  S
N1080      N1081   1.324       .  A
N1080      C1084   1.346       .  A
N1081      C1082   1.345       .  A
C1082      C1083   1.384       .  A
C1082      H1085   1.082       .  S
C1083      C1084   1.384       .  A
C1083      C2942   1.478       .  S
C1084      H1086   1.082       .  S
C1087      N1088   1.360       .  A
C1087      N1092   1.360       .  A
C1087      C1462   1.480       .  S
N1088      C1089   1.359       .  A
C1089      N1090   1.358       .  A
C1089      C1402   1.483       .  S
N1090      C1091   1.358       .  A
C1091      N1092   1.360       .  A
C1091      C1433   1.483       .  S
N1093      N1094   1.321       .  A
N1093      C1097   1.348       .  A
N1093     Cu1101   2.083       .  S
N1094      C1095   1.342       .  A
N1094     Cu1100   2.059       .  S
C1095      C1096   1.381       .  A
C1095      H1098   1.082       .  S
C1096      C1097   1.388       .  A
C1096      C1513   1.477       .  S
C1097      H1099   1.082       .  S
Cu1100     N1103   2.059       .  S
Cu1101     N1111   2.084       .  S
Cu1102     N1104   2.079       .  S
Cu1102     N1110   2.080       .  S
N1103      N1104   1.321       .  A
N1103      C1107   1.341       .  A
N1104      C1105   1.348       .  A
C1105      C1106   1.386       .  A
C1105      H1108   1.082       .  S
C1106      C1107   1.381       .  A
C1106      C1373   1.474       .  S
C1107      H1109   1.082       .  S
N1110      N1111   1.323       .  A
N1110      C1114   1.345       .  A
N1111      C1112   1.345       .  A
C1112      C1113   1.389       .  A
C1112      H1115   1.081       .  S
C1113      C1114   1.388       .  A
C1113      C2182   1.489       .  S
C1114      H1116   1.081       .  S
N1117      N1118   1.320       .  A
N1117      C1121   1.348       .  A
N1117     Cu1125   2.083       .  S
N1118      C1119   1.342       .  A
N1118     Cu1124   2.059       .  S
C1119      C1120   1.383       .  A
C1119      H1122   1.082       .  S
C1120      C1121   1.390       .  A
C1120      C1422   1.482       .  S
C1121      H1123   1.082       .  S
Cu1124     N1127   2.060       .  S
Cu1125     N1135   2.084       .  S
Cu1126     N1128   2.094       .  S
Cu1126     N1134   2.095       .  S
N1127      N1128   1.322       .  A
N1127      C1131   1.341       .  A
N1128      C1129   1.351       .  A
C1129      C1130   1.389       .  A
C1129      H1132   1.082       .  S
C1130      C1131   1.379       .  A
C1130      C1353   1.477       .  S
C1131      H1133   1.082       .  S
N1134      N1135   1.325       .  A
N1134      C1138   1.349       .  A
N1135      C1136   1.345       .  A
C1136      C1137   1.384       .  A
C1136      H1139   1.082       .  S
C1137      C1138   1.388       .  A
C1137      C2402   1.484       .  S
C1138      H1140   1.082       .  S
N1141      N1142   1.319       .  A
N1141      C1145   1.347       .  A
N1141     Cu1149   2.078       .  S
N1142      C1143   1.341       .  A
N1142     Cu1148   2.058       .  S
C1143      C1144   1.386       .  A
C1143      H1146   1.081       .  S
C1144      C1145   1.392       .  A
C1144      C1313   1.487       .  S
C1145      H1147   1.081       .  S
Cu1148     N1151   2.059       .  S
Cu1149     N1159   2.079       .  S
Cu1150     N1152   2.087       .  S
Cu1150     N1158   2.088       .  S
N1151      N1152   1.320       .  A
N1151      C1155   1.340       .  A
N1152      C1153   1.349       .  A
C1153      C1154   1.392       .  A
C1153      H1156   1.081       .  S
C1154      C1155   1.385       .  A
C1154      C1333   1.487       .  S
C1155      H1157   1.081       .  S
N1158      N1159   1.323       .  A
N1158      C1162   1.346       .  A
N1159      C1160   1.345       .  A
C1160      C1161   1.388       .  A
C1160      H1163   1.081       .  S
C1161      C1162   1.390       .  A
C1161      C2782   1.490       .  S
C1162      H1164   1.081       .  S
C1165      N1166   1.357       .  A
C1165      N1170   1.360       .  A
C1165      C1362   1.482       .  S
N1166      C1167   1.357       .  A
C1167      N1168   1.359       .  A
C1167      C1382   1.483       .  S
N1168      C1169   1.361       .  A
C1169      N1170   1.362       .  A
C1169      C1342   1.486       .  S
N1171      N1172   1.318       .  A
N1171      C1175   1.348       .  A
N1171     Cu1179   2.083       .  S
N1172      C1173   1.338       .  A
N1172     Cu1178   2.044       .  S
C1173      C1174   1.384       .  A
C1173      H1176   1.080       .  S
C1174      C1175   1.394       .  A
C1174      C1322   1.486       .  S
C1175      H1177   1.081       .  S
Cu1178     N1181   2.044       .  S
Cu1179     N1189   2.086       .  S
Cu1180     N1182   2.084       .  S
Cu1180     N1188   2.086       .  S
N1181      N1182   1.319       .  A
N1181      C1185   1.337       .  A
N1182      C1183   1.349       .  A
C1183      C1184   1.392       .  A
C1183      H1186   1.081       .  S
C1184      C1185   1.382       .  A
C1184      C1293   1.481       .  S
C1185      H1187   1.081       .  S
N1188      N1189   1.325       .  A
N1188      C1192   1.346       .  A
N1189      C1190   1.345       .  A
C1190      C1191   1.385       .  A
C1190      H1193   1.081       .  S
C1191      C1192   1.386       .  A
C1191      C2562   1.483       .  S
C1192      H1194   1.082       .  S
N1195      N1196   1.319       .  A
N1195      C1199   1.348       .  A
N1195     Cu1203   2.082       .  S
N1196      C1197   1.341       .  A
N1196     Cu1202   2.058       .  S
C1197      C1198   1.385       .  A
C1197      H1200   1.081       .  S
C1198      C1199   1.392       .  A
C1198      C1862   1.486       .  S
C1199      H1201   1.081       .  S
Cu1202     N1205   2.059       .  S
Cu1203     N1213   2.084       .  S
Cu1204     N1206   2.078       .  S
Cu1204     N1212   2.080       .  S
N1205      N1206   1.320       .  A
N1205      C1209   1.340       .  A
N1206      C1207   1.349       .  A
C1207      C1208   1.388       .  A
C1207      H1210   1.082       .  S
C1208      C1209   1.382       .  A
C1208      C1273   1.478       .  S
C1209      H1211   1.082       .  S
N1212      N1213   1.324       .  A
N1212      C1216   1.345       .  A
N1213      C1214   1.344       .  A
C1214      C1215   1.389       .  A
C1214      H1217   1.081       .  S
C1215      C1216   1.388       .  A
C1215      C2262   1.488       .  S
C1216      H1218   1.081       .  S
N1219      N1220   1.321       .  A
N1219      C1223   1.350       .  A
N1219     Cu1227   2.090       .  S
N1220      C1221   1.341       .  A
N1220     Cu1226   2.060       .  S
C1221      C1222   1.383       .  A
C1221      H1224   1.082       .  S
C1222      C1223   1.390       .  A
C1222      C1622   1.482       .  S
C1223      H1225   1.082       .  S
Cu1226     N1229   2.060       .  S
Cu1227     N1237   2.092       .  S
Cu1228     N1230   2.085       .  S
Cu1228     N1236   2.087       .  S
N1229      N1230   1.320       .  A
N1229      C1233   1.341       .  A
N1230      C1231   1.349       .  A
C1231      C1232   1.390       .  A
C1231      H1234   1.082       .  S
C1232      C1233   1.383       .  A
C1232      C1253   1.481       .  S
C1233      H1235   1.082       .  S
N1236      N1237   1.324       .  A
N1236      C1240   1.345       .  A
N1237      C1238   1.348       .  A
C1238      C1239   1.391       .  A
C1238      H1241   1.081       .  S
C1239      C1240   1.389       .  A
C1239      C3122   1.494       .  S
C1240      H1242   1.081       .  S
C1243      N1244   1.360       .  A
C1243      N1248   1.358       .  A
C1243      C1262   1.484       .  S
N1244      C1245   1.361       .  A
C1245      N1246   1.359       .  A
C1245      C1282   1.482       .  S
N1246      C1247   1.358       .  A
C1247      N1248   1.357       .  A
C1247      C1302   1.482       .  S
C1249      C1250   1.408       .  A
C1249      C1254   1.402       .  A
C1249      H1259   1.083       .  S
C1250      C1251   1.406       .  A
C1250      C1255   1.489       .  S
C1251      C1252   1.395       .  A
C1251      H1256   1.083       .  S
C1252      C1253   1.404       .  A
C1252      H1257   1.083       .  S
C1253      C1254   1.405       .  A
C1254      H1258   1.082       .  S
C1255      C1260   1.407       .  A
C1255      C1264   1.406       .  A
C1260      C1261   1.401       .  A
C1260      H1265   1.083       .  S
C1261      C1262   1.407       .  A
C1261      H1266   1.083       .  S
C1262      C1263   1.405       .  A
C1263      C1264   1.395       .  A
C1263      H1267   1.083       .  S
C1264      H1268   1.083       .  S
C1269      C1270   1.406   1_655  A
C1269      C1274   1.394       .  A
C1269      H1279   1.082       .  S
C1270      C1271   1.409       .  A
C1270      C1275   1.490       .  S
C1271      C1272   1.402   1_455  A
C1271      H1276   1.082       .  S
C1272      C1273   1.404       .  A
C1272      H1277   1.083       .  S
C1273      C1274   1.403       .  A
C1274      H1278   1.083       .  S
C1275      C1280   1.408       .  A
C1275      C1284   1.406       .  A
C1280      C1281   1.396       .  A
C1280      H1285   1.082       .  S
C1281      C1282   1.403       .  A
C1281      H1286   1.083       .  S
C1282      C1283   1.407       .  A
C1283      C1284   1.400       .  A
C1283      H1287   1.083       .  S
C1284      H1288   1.082       .  S
C1289      C1290   1.402   1_545  A
C1289      C1294   1.392       .  A
C1289      H1299   1.083       .  S
C1290      C1291   1.406       .  A
C1290      C1295   1.481       .  S
C1291      C1292   1.401   1_565  A
C1291      H1296   1.083       .  S
C1292      C1293   1.405       .  A
C1292      H1297   1.082       .  S
C1293      C1294   1.406       .  A
C1294      H1298   1.081       .  S
C1295      C1300   1.403       .  A
C1295      C1304   1.405       .  A
C1300      C1301   1.398       .  A
C1300      H1305   1.083       .  S
C1301      C1302   1.408       .  A
C1301      H1306   1.083       .  S
C1302      C1303   1.405       .  A
C1303      C1304   1.395       .  A
C1303      H1307   1.083       .  S
C1304      H1308   1.083       .  S
C1309      C1310   1.404       .  A
C1309      C1314   1.395       .  A
C1309      H1319   1.083       .  S
C1310      C1311   1.407       .  A
C1310      C1315   1.487       .  S
C1311      C1312   1.399       .  A
C1311      H1316   1.083       .  S
C1312      C1313   1.406       .  A
C1312      H1317   1.081       .  S
C1313      C1314   1.407       .  A
C1314      H1318   1.080       .  S
C1315      C1320   1.403       .  A
C1315      C1324   1.407       .  A
C1320      C1321   1.395       .  A
C1320      H1325   1.083       .  S
C1321      C1322   1.408       .  A
C1321      H1326   1.080       .  S
C1322      C1323   1.405       .  A
C1323      C1324   1.399       .  A
C1323      H1327   1.081       .  S
C1324      H1328   1.082       .  S
C1329      C1330   1.403       .  A
C1329      C1334   1.395       .  A
C1329      H1339   1.083       .  S
C1330      C1331   1.406       .  A
C1330      C1335   1.484       .  S
C1331      C1332   1.402       .  A
C1331      H1336   1.083       .  S
C1332      C1333   1.407       .  A
C1332      H1337   1.082       .  S
C1333      C1334   1.407       .  A
C1334      H1338   1.081       .  S
C1335      C1340   1.404       .  A
C1335      C1344   1.405       .  A
C1340      C1341   1.401       .  A
C1340      H1345   1.083       .  S
C1341      C1342   1.408       .  A
C1341      H1346   1.083       .  S
C1342      C1343   1.406       .  A
C1343      C1344   1.397       .  A
C1343      H1347   1.083       .  S
C1344      H1348   1.083       .  S
C1349      C1350   1.407       .  A
C1349      C1354   1.396       .  A
C1349      H1359   1.082       .  S
C1350      C1351   1.411       .  A
C1350      C1355   1.495       .  S
C1351      C1352   1.402       .  A
C1351      H1356   1.082       .  S
C1352      C1353   1.401       .  A
C1352      H1357   1.083       .  S
C1353      C1354   1.403       .  A
C1354      H1358   1.083       .  S
C1355      C1360   1.410       .  A
C1355      C1364   1.407       .  A
C1360      C1361   1.399       .  A
C1360      H1365   1.082       .  S
C1361      C1362   1.403       .  A
C1361      H1366   1.083       .  S
C1362      C1363   1.406       .  A
C1363      C1364   1.398       .  A
C1363      H1367   1.083       .  S
C1364      H1368   1.082       .  S
C1369      C1370   1.408       .  A
C1369      C1374   1.394       .  A
C1369      H1379   1.082       .  S
C1370      C1371   1.410       .  A
C1370      C1375   1.492       .  S
C1371      C1372   1.401       .  A
C1371      H1376   1.082       .  S
C1372      C1373   1.402       .  A
C1372      H1377   1.083       .  S
C1373      C1374   1.401       .  A
C1374      H1378   1.083       .  S
C1375      C1380   1.407       .  A
C1375      C1384   1.408       .  A
C1380      C1381   1.394       .  A
C1380      H1385   1.082       .  S
C1381      C1382   1.405       .  A
C1381      H1386   1.083       .  S
C1382      C1383   1.406       .  A
C1383      C1384   1.401       .  A
C1383      H1387   1.083       .  S
C1384      H1388   1.082       .  S
C1389      C1390   1.406       .  A
C1389      C1394   1.401       .  A
C1389      H1399   1.083       .  S
C1390      C1391   1.404       .  A
C1390      C1395   1.486       .  S
C1391      C1392   1.394       .  A
C1391      H1396   1.083       .  S
C1392      C1393   1.407       .  A
C1392      H1397   1.080       .  S
C1393      C1394   1.407       .  A
C1394      H1398   1.081       .  S
C1395      C1400   1.405       .  A
C1395      C1404   1.406       .  A
C1400      C1401   1.395       .  A
C1400      H1405   1.083       .  S
C1401      C1402   1.405       .  A
C1401      H1406   1.083       .  S
C1402      C1403   1.407       .  A
C1403      C1404   1.401       .  A
C1403      H1407   1.083       .  S
C1404      H1408   1.083       .  S
C1409      C1410   1.409       .  A
C1409      C1414   1.400       .  A
C1409      H1419   1.082       .  S
C1410      C1411   1.410       .  A
C1410      C1415   1.497       .  S
C1411      C1412   1.399       .  A
C1411      H1416   1.082       .  S
C1412      C1413   1.402       .  A
C1412      H1417   1.083       .  S
C1413      C1414   1.404       .  A
C1414      H1418   1.083       .  S
C1415      C1420   1.410       .  A
C1415      C1424   1.408       .  A
C1420      C1421   1.401       .  A
C1420      H1425   1.082       .  S
C1421      C1422   1.403       .  A
C1421      H1426   1.083       .  S
C1422      C1423   1.404       .  A
C1423      C1424   1.397       .  A
C1423      H1427   1.083       .  S
C1424      H1428   1.082       .  S
C1429      C1430   1.405       .  A
C1429      C1434   1.398       .  A
C1429      H1439   1.083       .  S
C1430      C1431   1.406       .  A
C1430      C1435   1.486   1_655  S
C1431      C1432   1.398       .  A
C1431      H1436   1.083   1_655  S
C1432      C1433   1.405       .  A
C1432      H1437   1.083       .  S
C1433      C1434   1.408       .  A
C1434      H1438   1.083       .  S
C1435      C1440   1.403       .  A
C1435      C1444   1.406       .  A
C1440      C1441   1.395       .  A
C1440      H1445   1.083       .  S
C1441      C1442   1.407       .  A
C1441      H1446   1.081       .  S
C1442      C1443   1.407       .  A
C1443      C1444   1.402       .  A
C1443      H1447   1.082       .  S
C1444      H1448   1.083   1_455  S
C1449      C1450   1.406       .  A
C1449      C1454   1.394   1_554  A
C1449      H1459   1.082       .  S
C1450      C1451   1.410       .  A
C1450      C1455   1.493       .  S
C1451      C1452   1.403       .  A
C1451      H1456   1.082       .  S
C1452      C1453   1.404   1_554  A
C1452      H1457   1.083       .  S
C1453      C1454   1.403       .  A
C1454      H1458   1.083       .  S
C1455      C1460   1.409       .  A
C1455      C1464   1.408       .  A
C1460      C1461   1.396       .  A
C1460      H1465   1.082       .  S
C1461      C1462   1.403       .  A
C1461      H1466   1.083       .  S
C1462      C1463   1.405       .  A
C1463      C1464   1.400       .  A
C1463      H1467   1.083       .  S
C1464      H1468   1.082       .  S
C1469      C1470   1.408       .  A
C1469      C1474   1.395       .  A
C1469      H1479   1.082       .  S
C1470      C1471   1.410       .  A
C1470      C1475   1.494       .  S
C1471      C1472   1.401       .  A
C1471      H1476   1.082       .  S
C1472      C1473   1.404       .  A
C1472      H1477   1.083       .  S
C1473      C1474   1.404       .  A
C1474      H1478   1.083       .  S
C1475      C1480   1.408       .  A
C1475      C1484   1.409       .  A
C1480      C1481   1.396       .  A
C1480      H1485   1.082       .  S
C1481      C1482   1.404       .  A
C1481      H1486   1.083       .  S
C1482      C1483   1.403       .  A
C1483      C1484   1.401       .  A
C1483      H1487   1.083       .  S
C1484      H1488   1.082       .  S
C1489      C1490   1.404       .  A
C1489      C1494   1.396       .  A
C1489      H1499   1.083       .  S
C1490      C1491   1.407       .  A
C1490      C1495   1.489       .  S
C1491      C1492   1.402       .  A
C1491      H1496   1.083       .  S
C1492      C1493   1.407       .  A
C1492      H1497   1.082       .  S
C1493      C1494   1.407       .  A
C1494      H1498   1.081       .  S
C1495      C1500   1.404   1_565  A
C1495      C1504   1.407       .  A
C1500      C1501   1.399       .  A
C1500      H1505   1.083       .  S
C1501      C1502   1.408       .  A
C1501      H1506   1.083       .  S
C1502      C1503   1.406       .  A
C1503      C1504   1.399   1_545  A
C1503      H1507   1.083       .  S
C1504      H1508   1.083       .  S
C1509      C1510   1.407       .  A
C1509      C1514   1.397       .  A
C1509      H1519   1.082       .  S
C1510      C1511   1.410       .  A
C1510      C1515   1.491       .  S
C1511      C1512   1.399       .  A
C1511      H1516   1.082       .  S
C1512      C1513   1.402       .  A
C1512      H1517   1.083       .  S
C1513      C1514   1.404       .  A
C1514      H1518   1.083       .  S
C1515      C1520   1.409       .  A
C1515      C1524   1.406       .  A
C1520      C1521   1.399       .  A
C1520      H1525   1.082       .  S
C1521      C1522   1.403       .  A
C1521      H1526   1.082       .  S
C1522      C1523   1.405       .  A
C1523      C1524   1.396       .  A
C1523      H1527   1.083       .  S
C1524      H1528   1.082       .  S
C1529      C1530   1.406       .  A
C1529      C1534   1.394       .  A
C1529      H1539   1.082       .  S
C1530      C1531   1.410       .  A
C1530      C1535   1.492       .  S
C1531      C1532   1.402       .  A
C1531      H1536   1.082       .  S
C1532      C1533   1.404       .  A
C1532      H1537   1.083       .  S
C1533      C1534   1.405       .  A
C1534      H1538   1.082       .  S
C1535      C1540   1.409       .  A
C1535      C1544   1.407       .  A
C1540      C1541   1.397       .  A
C1540      H1545   1.082       .  S
C1541      C1542   1.402   1_554  A
C1541      H1546   1.083       .  S
C1542      C1543   1.404       .  A
C1543      C1544   1.398   1_556  A
C1543      H1547   1.083       .  S
C1544      H1548   1.082   1_554  S
C1549      C1550   1.410       .  A
C1549      C1554   1.400       .  A
C1549      H1559   1.082       .  S
C1550      C1551   1.407       .  A
C1550      C1555   1.494       .  S
C1551      C1552   1.398       .  A
C1551      H1556   1.082       .  S
C1552      C1553   1.404       .  A
C1552      H1557   1.083       .  S
C1553      C1554   1.403       .  A
C1554      H1558   1.083       .  S
C1555      C1560   1.406       .  A
C1555      C1564   1.410       .  A
C1560      C1561   1.397       .  A
C1560      H1565   1.082       .  S
C1561      C1562   1.405       .  A
C1561      H1566   1.082       .  S
C1562      C1563   1.403       .  A
C1563      C1564   1.401       .  A
C1563      H1567   1.083       .  S
C1564      H1568   1.082       .  S
C1569      C1570   1.407       .  A
C1569      C1574   1.395       .  A
C1569      H1579   1.082       .  S
C1570      C1571   1.410       .  A
C1570      C1575   1.494       .  S
C1571      C1572   1.403       .  A
C1571      H1576   1.082       .  S
C1572      C1573   1.403       .  A
C1572      H1577   1.083       .  S
C1573      C1574   1.403       .  A
C1574      H1578   1.083       .  S
C1575      C1580   1.409       .  A
C1575      C1584   1.408       .  A
C1580      C1581   1.397       .  A
C1580      H1585   1.082       .  S
C1581      C1582   1.403       .  A
C1581      H1586   1.083       .  S
C1582      C1583   1.405       .  A
C1583      C1584   1.401       .  A
C1583      H1587   1.083       .  S
C1584      H1588   1.082       .  S
C1589      C1590   1.406       .  A
C1589      C1594   1.394       .  A
C1589      H1599   1.082       .  S
C1590      C1591   1.410       .  A
C1590      C1595   1.493       .  S
C1591      C1592   1.404       .  A
C1591      H1596   1.082       .  S
C1592      C1593   1.404       .  A
C1592      H1597   1.083       .  S
C1593      C1594   1.403       .  A
C1594      H1598   1.083       .  S
C1595      C1600   1.408       .  A
C1595      C1604   1.407       .  A
C1600      C1601   1.396       .  A
C1600      H1605   1.082       .  S
C1601      C1602   1.403       .  A
C1601      H1606   1.083       .  S
C1602      C1603   1.407       .  A
C1603      C1604   1.402       .  A
C1603      H1607   1.083       .  S
C1604      H1608   1.082       .  S
C1609      C1610   1.402       .  A
C1609      C1614   1.394       .  A
C1609      H1619   1.083       .  S
C1610      C1611   1.406       .  A
C1610      C1615   1.485       .  S
C1611      C1612   1.404       .  A
C1611      H1616   1.083       .  S
C1612      C1613   1.408       .  A
C1612      H1617   1.082       .  S
C1613      C1614   1.408       .  A
C1614      H1618   1.080       .  S
C1615      C1620   1.404       .  A
C1615      C1624   1.406       .  A
C1620      C1621   1.394       .  A
C1620      H1625   1.083       .  S
C1621      C1622   1.404       .  A
C1621      H1626   1.083       .  S
C1622      C1623   1.406       .  A
C1623      C1624   1.404       .  A
C1623      H1627   1.082       .  S
C1624      H1628   1.083       .  S
C1629      C1630   1.408       .  A
C1629      C1634   1.402       .  A
C1629      H1639   1.083       .  S
C1630      C1631   1.406       .  A
C1630      C1635   1.489       .  S
C1631      C1632   1.394       .  A
C1631      H1636   1.083       .  S
C1632      C1633   1.403       .  A
C1632      H1637   1.083       .  S
C1633      C1634   1.404       .  A
C1634      H1638   1.083       .  S
C1635      C1640   1.406       .  A
C1635      C1644   1.407       .  A
C1640      C1641   1.402       .  A
C1640      H1645   1.083       .  S
C1641      C1642   1.407       .  A
C1641      H1646   1.083       .  S
C1642      C1643   1.404       .  A
C1643      C1644   1.394       .  A
C1643      H1647   1.083       .  S
C1644      H1648   1.083       .  S
C1649      C1650   1.408       .  A
C1649      C1654   1.398       .  A
C1649      H1659   1.082       .  S
C1650      C1651   1.411       .  A
C1650      C1655   1.494       .  S
C1651      C1652   1.399       .  A
C1651      H1656   1.082       .  S
C1652      C1653   1.402       .  A
C1652      H1657   1.083       .  S
C1653      C1654   1.403       .  A
C1654      H1658   1.083       .  S
C1655      C1660   1.411       .  A
C1655      C1664   1.407       .  A
C1660      C1661   1.400       .  A
C1660      H1665   1.082       .  S
C1661      C1662   1.402       .  A
C1661      H1666   1.083       .  S
C1662      C1663   1.403       .  A
C1663      C1664   1.397       .  A
C1663      H1667   1.083       .  S
C1664      H1668   1.082       .  S
C1669      C1670   1.409       .  A
C1669      C1674   1.396       .  A
C1669      H1679   1.082       .  S
C1670      C1671   1.410       .  A
C1670      C1675   1.496       .  S
C1671      C1672   1.401       .  A
C1671      H1676   1.082       .  S
C1672      C1673   1.403       .  A
C1672      H1677   1.083       .  S
C1673      C1674   1.401       .  A
C1674      H1678   1.083       .  S
C1675      C1680   1.408       .  A
C1675      C1684   1.410       .  A
C1680      C1681   1.395       .  A
C1680      H1685   1.082       .  S
C1681      C1682   1.404       .  A
C1681      H1686   1.083       .  S
C1682      C1683   1.405       .  A
C1683      C1684   1.403       .  A
C1683      H1687   1.083       .  S
C1684      H1688   1.082       .  S
C1689      C1690   1.405       .  A
C1689      C1694   1.400       .  A
C1689      H1699   1.083       .  S
C1690      C1691   1.403       .  A
C1690      C1695   1.484       .  S
C1691      C1692   1.395       .  A
C1691      H1696   1.083       .  S
C1692      C1693   1.407       .  A
C1692      H1697   1.081       .  S
C1693      C1694   1.406       .  A
C1694      H1698   1.082       .  S
C1695      C1700   1.405       .  A
C1695      C1704   1.404       .  A
C1700      C1701   1.397       .  A
C1700      H1705   1.083       .  S
C1701      C1702   1.406       .  A
C1701      H1706   1.083       .  S
C1702      C1703   1.408       .  A
C1703      C1704   1.398       .  A
C1703      H1707   1.083       .  S
C1704      H1708   1.083       .  S
C1709      C1710   1.410       .  A
C1709      C1714   1.403       .  A
C1709      H1719   1.082       .  S
C1710      C1711   1.407       .  A
C1710      C1715   1.496       .  S
C1711      C1712   1.396       .  A
C1711      H1716   1.082       .  S
C1712      C1713   1.404       .  A
C1712      H1717   1.083       .  S
C1713      C1714   1.404       .  A
C1714      H1718   1.083       .  S
C1715      C1720   1.408       .  A
C1715      C1724   1.410       .  A
C1720      C1721   1.401       .  A
C1720      H1725   1.082       .  S
C1721      C1722   1.406       .  A
C1721      H1726   1.083       .  S
C1722      C1723   1.403       .  A
C1723      C1724   1.398       .  A
C1723      H1727   1.083       .  S
C1724      H1728   1.082       .  S
C1729      C1730   1.409       .  A
C1729      C1734   1.397       .  A
C1729      H1739   1.082       .  S
C1730      C1731   1.408       .  A
C1730      C1735   1.491       .  S
C1731      C1732   1.397       .  A
C1731      H1736   1.082       .  S
C1732      C1733   1.402       .  A
C1732      H1737   1.083       .  S
C1733      C1734   1.401       .  A
C1734      H1738   1.083       .  S
C1735      C1740   1.407       .  A
C1735      C1744   1.409       .  A
C1740      C1741   1.396       .  A
C1740      H1745   1.082       .  S
C1741      C1742   1.403       .  A
C1741      H1746   1.083       .  S
C1742      C1743   1.403       .  A
C1743      C1744   1.399       .  A
C1743      H1747   1.083       .  S
C1744      H1748   1.082       .  S
C1749      C1750   1.405       .  A
C1749      C1754   1.399       .  A
C1749      H1759   1.083       .  S
C1750      C1751   1.402       .  A
C1750      C1755   1.481       .  S
C1751      C1752   1.395       .  A
C1751      H1756   1.083       .  S
C1752      C1753   1.408       .  A
C1752      H1757   1.080       .  S
C1753      C1754   1.407       .  A
C1754      H1758   1.081       .  S
C1755      C1760   1.406       .  A
C1755      C1764   1.403       .  A
C1760      C1761   1.398       .  A
C1760      H1765   1.083       .  S
C1761      C1762   1.405       .  A
C1761      H1766   1.083       .  S
C1762      C1763   1.408       .  A
C1763      C1764   1.396       .  A
C1763      H1767   1.083       .  S
C1764      H1768   1.083       .  S
C1769      C1770   1.401       .  A
C1769      C1774   1.394       .  A
C1769      H1779   1.084       .  S
C1770      C1771   1.405       .  A
C1770      C1775   1.480       .  S
C1771      C1772   1.402       .  A
C1771      H1776   1.083       .  S
C1772      C1773   1.407       .  A
C1772      H1777   1.082       .  S
C1773      C1774   1.408       .  A
C1774      H1778   1.080       .  S
C1775      C1780   1.403       .  A
C1775      C1784   1.406       .  A
C1780      C1781   1.393       .  A
C1780      H1785   1.083       .  S
C1781      C1782   1.403       .  A
C1781      H1786   1.083       .  S
C1782      C1783   1.404       .  A
C1783      C1784   1.403       .  A
C1783      H1787   1.083       .  S
C1784      H1788   1.083       .  S
C1789      C1790   1.406       .  A
C1789      C1794   1.393       .  A
C1789      H1799   1.082       .  S
C1790      C1791   1.409       .  A
C1790      C1795   1.489       .  S
C1791      C1792   1.400       .  A
C1791      H1796   1.082       .  S
C1792      C1793   1.403       .  A
C1792      H1797   1.083       .  S
C1793      C1794   1.403       .  A
C1794      H1798   1.083       .  S
C1795      C1800   1.407       .  A
C1795      C1804   1.407       .  A
C1800      C1801   1.394       .  A
C1800      H1805   1.082       .  S
C1801      C1802   1.404       .  A
C1801      H1806   1.083       .  S
C1802      C1803   1.405       .  A
C1803      C1804   1.399       .  A
C1803      H1807   1.083       .  S
C1804      H1808   1.082       .  S
C1809      C1810   1.410       .  A
C1809      C1814   1.399       .  A
C1809      H1819   1.082       .  S
C1810      C1811   1.408       .  A
C1810      C1815   1.494       .  S
C1811      C1812   1.396       .  A
C1811      H1816   1.082       .  S
C1812      C1813   1.402       .  A
C1812      H1817   1.083       .  S
C1813      C1814   1.402       .  A
C1814      H1818   1.083       .  S
C1815      C1820   1.408       .  A
C1815      C1824   1.410       .  A
C1820      C1821   1.399       .  A
C1820      H1825   1.082       .  S
C1821      C1822   1.403       .  A
C1821      H1826   1.083       .  S
C1822      C1823   1.401       .  A
C1823      C1824   1.397       .  A
C1823      H1827   1.083       .  S
C1824      H1828   1.082       .  S
C1829      C1830   1.406       .  A
C1829      C1834   1.401       .  A
C1829      H1839   1.083       .  S
C1830      C1831   1.404       .  A
C1830      C1835   1.488       .  S
C1831      C1832   1.394       .  A
C1831      H1836   1.083       .  S
C1832      C1833   1.406       .  A
C1832      H1837   1.080       .  S
C1833      C1834   1.407       .  A
C1834      H1838   1.081       .  S
C1835      C1840   1.406       .  A
C1835      C1844   1.406       .  A
C1840      C1841   1.395       .  A
C1840      H1845   1.083       .  S
C1841      C1842   1.405       .  A
C1841      H1846   1.083       .  S
C1842      C1843   1.407       .  A
C1843      C1844   1.400       .  A
C1843      H1847   1.083       .  S
C1844      H1848   1.083       .  S
C1849      C1850   1.407       .  A
C1849      C1854   1.401       .  A
C1849      H1859   1.083       .  S
C1850      C1851   1.403       .  A
C1850      C1855   1.487       .  S
C1851      C1852   1.396       .  A
C1851      H1856   1.083       .  S
C1852      C1853   1.408       .  A
C1852      H1857   1.080       .  S
C1853      C1854   1.407       .  A
C1854      H1858   1.082       .  S
C1855      C1860   1.407       .  A
C1855      C1864   1.404       .  A
C1860      C1861   1.400       .  A
C1860      H1865   1.083       .  S
C1861      C1862   1.405       .  A
C1861      H1866   1.082       .  S
C1862      C1863   1.407       .  A
C1863      C1864   1.397       .  A
C1863      H1867   1.081       .  S
C1864      H1868   1.083       .  S
C1869      C1870   1.406       .  A
C1869      C1874   1.401       .  A
C1869      H1879   1.083       .  S
C1870      C1871   1.403       .  A
C1870      C1875   1.487       .  S
C1871      C1872   1.395       .  A
C1871      H1876   1.083       .  S
C1872      C1873   1.408       .  A
C1872      H1877   1.080       .  S
C1873      C1874   1.407       .  A
C1874      H1878   1.082       .  S
C1875      C1880   1.407       .  A
C1875      C1884   1.404       .  A
C1880      C1881   1.398       .  A
C1880      H1885   1.083       .  S
C1881      C1882   1.405       .  A
C1881      H1886   1.083       .  S
C1882      C1883   1.409       .  A
C1883      C1884   1.398       .  A
C1883      H1887   1.083       .  S
C1884      H1888   1.083       .  S
C1889      C1890   1.405       .  A
C1889      C1894   1.397       .  A
C1889      H1899   1.083       .  S
C1890      C1891   1.405       .  A
C1890      C1895   1.482       .  S
C1891      C1892   1.395       .  A
C1891      H1896   1.083       .  S
C1892      C1893   1.404       .  A
C1892      H1897   1.082       .  S
C1893      C1894   1.405       .  A
C1894      H1898   1.082       .  S
C1895      C1900   1.403       .  A
C1895      C1904   1.405       .  A
C1900      C1901   1.393       .  A
C1900      H1905   1.083       .  S
C1901      C1902   1.406       .  A
C1901      H1906   1.080       .  S
C1902      C1903   1.407       .  A
C1903      C1904   1.399       .  A
C1903      H1907   1.081       .  S
C1904      H1908   1.083       .  S
C1909      C1910   1.407       .  A
C1909      C1914   1.400       .  A
C1909      H1919   1.083       .  S
C1910      C1911   1.406       .  A
C1910      C1915   1.486       .  S
C1911      C1912   1.394       .  A
C1911      H1916   1.083       .  S
C1912      C1913   1.403       .  A
C1912      H1917   1.083       .  S
C1913      C1914   1.404       .  A
C1914      H1918   1.083       .  S
C1915      C1920   1.406       .  A
C1915      C1924   1.406       .  A
C1920      C1921   1.399       .  A
C1920      H1925   1.083       .  S
C1921      C1922   1.406       .  A
C1921      H1926   1.083       .  S
C1922      C1923   1.404       .  A
C1923      C1924   1.394       .  A
C1923      H1927   1.083       .  S
C1924      H1928   1.083       .  S
C1929      C1930   1.403       .  A
C1929      C1934   1.396       .  A
C1929      H1939   1.083       .  S
C1930      C1931   1.406       .  A
C1930      C1935   1.484       .  S
C1931      C1932   1.403       .  A
C1931      H1936   1.083       .  S
C1932      C1933   1.406       .  A
C1932      H1937   1.083       .  S
C1933      C1934   1.406       .  A
C1934      H1938   1.082       .  S
C1935      C1940   1.404       .  A
C1935      C1944   1.406       .  A
C1940      C1941   1.397       .  A
C1940      H1945   1.083       .  S
C1941      C1942   1.404       .  A
C1941      H1946   1.083       .  S
C1942      C1943   1.405       .  A
C1943      C1944   1.403       .  A
C1943      H1947   1.083       .  S
C1944      H1948   1.083       .  S
C1949      C1950   1.407       .  A
C1949      C1954   1.402       .  A
C1949      H1959   1.083       .  S
C1950      C1951   1.407       .  A
C1950      C1955   1.491       .  S
C1951      C1952   1.396       .  A
C1951      H1956   1.083       .  S
C1952      C1953   1.403       .  A
C1952      H1957   1.083       .  S
C1953      C1954   1.406       .  A
C1954      H1958   1.082       .  S
C1955      C1960   1.409       .  A
C1955      C1964   1.406       .  A
C1960      C1961   1.404       .  A
C1960      H1965   1.082       .  S
C1961      C1962   1.407       .  A
C1961      H1966   1.083       .  S
C1962      C1963   1.405       .  A
C1963      C1964   1.393       .  A
C1963      H1967   1.083       .  S
C1964      H1968   1.083       .  S
C1969      C1970   1.404       .  A
C1969      C1974   1.399       .  A
C1969      H1979   1.083       .  S
C1970      C1971   1.405       .  A
C1970      C1975   1.482       .  S
C1971      C1972   1.400       .  A
C1971      H1976   1.083       .  S
C1972      C1973   1.405       .  A
C1972      H1977   1.083       .  S
C1973      C1974   1.406       .  A
C1974      H1978   1.083       .  S
C1975      C1980   1.405       .  A
C1975      C1984   1.404       .  A
C1980      C1981   1.401       .  A
C1980      H1985   1.083       .  S
C1981      C1982   1.405       .  A
C1981      H1986   1.083       .  S
C1982      C1983   1.405       .  A
C1983      C1984   1.399       .  A
C1983      H1987   1.083       .  S
C1984      H1988   1.083       .  S
C1989      C1990   1.410       .  A
C1989      C1994   1.401       .  A
C1989      H1999   1.082       .  S
C1990      C1991   1.408       .  A
C1990      C1995   1.495       .  S
C1991      C1992   1.397       .  A
C1991      H1996   1.082       .  S
C1992      C1993   1.404       .  A
C1992      H1997   1.083       .  S
C1993      C1994   1.402       .  A
C1994      H1998   1.083       .  S
C1995      C2000   1.408       .  A
C1995      C2004   1.410       .  A
C2000      C2001   1.399       .  A
C2000      H2005   1.082       .  S
C2001      C2002   1.404       .  A
C2001      H2006   1.083       .  S
C2002      C2003   1.403       .  A
C2003      C2004   1.398       .  A
C2003      H2007   1.083       .  S
C2004      H2008   1.082       .  S
C2009      C2010   1.409       .  A
C2009      C2014   1.398       .  A
C2009      H2019   1.082       .  S
C2010      C2011   1.409       .  A
C2010      C2015   1.496       .  S
C2011      C2012   1.400       .  A
C2011      H2016   1.082       .  S
C2012      C2013   1.404       .  A
C2012      H2017   1.083       .  S
C2013      C2014   1.402       .  A
C2014      H2018   1.083       .  S
C2015      C2020   1.408       .  A
C2015      C2024   1.409       .  A
C2020      C2021   1.398       .  A
C2020      H2025   1.082       .  S
C2021      C2022   1.404       .  A
C2021      H2026   1.082       .  S
C2022      C2023   1.404       .  A
C2023      C2024   1.401       .  A
C2023      H2027   1.083       .  S
C2024      H2028   1.082       .  S
C2029      C2030   1.409       .  A
C2029      C2034   1.401       .  A
C2029      H2039   1.082       .  S
C2030      C2031   1.407       .  A
C2030      C2035   1.491       .  S
C2031      C2032   1.395       .  A
C2031      H2036   1.082       .  S
C2032      C2033   1.402       .  A
C2032      H2037   1.083       .  S
C2033      C2034   1.403       .  A
C2034      H2038   1.083       .  S
C2035      C2040   1.407       .  A
C2035      C2044   1.407       .  A
C2040      C2041   1.401       .  A
C2040      H2045   1.082       .  S
C2041      C2042   1.407       .  A
C2041      H2046   1.083       .  S
C2042      C2043   1.404       .  A
C2043      C2044   1.395       .  A
C2043      H2047   1.083       .  S
C2044      H2048   1.082       .  S
C2049      C2050   1.409       .  A
C2049      C2054   1.400       .  A
C2049      H2059   1.082       .  S
C2050      C2051   1.408       .  A
C2050      C2055   1.495       .  S
C2051      C2052   1.399       .  A
C2051      H2056   1.082       .  S
C2052      C2053   1.403       .  A
C2052      H2057   1.083       .  S
C2053      C2054   1.404       .  A
C2054      H2058   1.083       .  S
C2055      C2060   1.408       .  A
C2055      C2064   1.409       .  A
C2060      C2061   1.399       .  A
C2060      H2065   1.082       .  S
C2061      C2062   1.405       .  A
C2061      H2066   1.083       .  S
C2062      C2063   1.404       .  A
C2063      C2064   1.399       .  A
C2063      H2067   1.082       .  S
C2064      H2068   1.082       .  S
C2069      C2070   1.409       .  A
C2069      C2074   1.402       .  A
C2069      H2079   1.082       .  S
C2070      C2071   1.407       .  A
C2070      C2075   1.492       .  S
C2071      C2072   1.395       .  A
C2071      H2076   1.082       .  S
C2072      C2073   1.403       .  A
C2072      H2077   1.083       .  S
C2073      C2074   1.404       .  A
C2074      H2078   1.083       .  S
C2075      C2080   1.407       .  A
C2075      C2084   1.408       .  A
C2080      C2081   1.401       .  A
C2080      H2085   1.082       .  S
C2081      C2082   1.407       .  A
C2081      H2086   1.083       .  S
C2082      C2083   1.404       .  A
C2083      C2084   1.396       .  A
C2083      H2087   1.083       .  S
C2084      H2088   1.082       .  S
C2089      C2090   1.409       .  A
C2089      C2094   1.401       .  A
C2089      H2099   1.082       .  S
C2090      C2091   1.408       .  A
C2090      C2095   1.497       .  S
C2091      C2092   1.399       .  A
C2091      H2096   1.082       .  S
C2092      C2093   1.404       .  A
C2092      H2097   1.082       .  S
C2093      C2094   1.404       .  A
C2094      H2098   1.083       .  S
C2095      C2100   1.409       .  A
C2095      C2104   1.410       .  A
C2100      C2101   1.400       .  A
C2100      H2105   1.082       .  S
C2101      C2102   1.404       .  A
C2101      H2106   1.083       .  S
C2102      C2103   1.402       .  A
C2103      C2104   1.399       .  A
C2103      H2107   1.083       .  S
C2104      H2108   1.082       .  S
C2109      C2110   1.407       .  A
C2109      C2114   1.395       .  A
C2109      H2119   1.083       .  S
C2110      C2111   1.408       .  A
C2110      C2115   1.489       .  S
C2111      C2112   1.401       .  A
C2111      H2116   1.082       .  S
C2112      C2113   1.404       .  A
C2112      H2117   1.083       .  S
C2113      C2114   1.403       .  A
C2114      H2118   1.083       .  S
C2115      C2120   1.406       .  A
C2115      C2124   1.408       .  A
C2120      C2121   1.394       .  A
C2120      H2125   1.082       .  S
C2121      C2122   1.404       .  A
C2121      H2126   1.083       .  S
C2122      C2123   1.405       .  A
C2123      C2124   1.401       .  A
C2123      H2127   1.083       .  S
C2124      H2128   1.082       .  S
C2129      C2130   1.409       .  A
C2129      C2134   1.401       .  A
C2129      H2139   1.082       .  S
C2130      C2131   1.409       .  A
C2130      C2135   1.497   1_455  S
C2131      C2132   1.401       .  A
C2131      H2136   1.082       .  S
C2132      C2133   1.404       .  A
C2132      H2137   1.083       .  S
C2133      C2134   1.405       .  A
C2134      H2138   1.083       .  S
C2135      C2140   1.408       .  A
C2135      C2144   1.409       .  A
C2140      C2141   1.400       .  A
C2140      H2145   1.082       .  S
C2141      C2142   1.405       .  A
C2141      H2146   1.083       .  S
C2142      C2143   1.404       .  A
C2143      C2144   1.401       .  A
C2143      H2147   1.083       .  S
C2144      H2148   1.082       .  S
C2149      C2150   1.410       .  A
C2149      C2154   1.403       .  A
C2149      H2159   1.082       .  S
C2150      C2151   1.405       .  A
C2150      C2155   1.490       .  S
C2151      C2152   1.393       .  A
C2151      H2156   1.083       .  S
C2152      C2153   1.403       .  A
C2152      H2157   1.083       .  S
C2153      C2154   1.403       .  A
C2154      H2158   1.083       .  S
C2155      C2160   1.406       .  A
C2155      C2164   1.408       .  A
C2160      C2161   1.399       .  A
C2160      H2165   1.082       .  S
C2161      C2162   1.406       .  A
C2161      H2166   1.083       .  S
C2162      C2163   1.403       .  A
C2163      C2164   1.396       .  A
C2163      H2167   1.083       .  S
C2164      H2168   1.082       .  S
C2169      C2170   1.405       .  A
C2169      C2174   1.396       .  A
C2169      H2179   1.083       .  S
C2170      C2171   1.406       .  A
C2170      C2175   1.488   1_565  S
C2171      C2172   1.401       .  A
C2171      H2176   1.083       .  S
C2172      C2173   1.407       .  A
C2172      H2177   1.082       .  S
C2173      C2174   1.406       .  A
C2174      H2178   1.081       .  S
C2175      C2180   1.405       .  A
C2175      C2184   1.405       .  A
C2180      C2181   1.400       .  A
C2180      H2185   1.083       .  S
C2181      C2182   1.408       .  A
C2181      H2186   1.081       .  S
C2182      C2183   1.407       .  A
C2183      C2184   1.398       .  A
C2183      H2187   1.081       .  S
C2184      H2188   1.083       .  S
C2189      C2190   1.409       .  A
C2189      C2194   1.400       .  A
C2189      H2199   1.082       .  S
C2190      C2191   1.406       .  A
C2190      C2195   1.490       .  S
C2191      C2192   1.396       .  A
C2191      H2196   1.082       .  S
C2192      C2193   1.403       .  A
C2192      H2197   1.083       .  S
C2193      C2194   1.402       .  A
C2194      H2198   1.083       .  S
C2195      C2200   1.406       .  A
C2195      C2204   1.408       .  A
C2200      C2201   1.398       .  A
C2200      H2205   1.082       .  S
C2201      C2202   1.405       .  A
C2201      H2206   1.083       .  S
C2202      C2203   1.404       .  A
C2203      C2204   1.398       .  A
C2203      H2207   1.083       .  S
C2204      H2208   1.082       .  S
C2209      C2210   1.406       .  A
C2209      C2214   1.397       .  A
C2209      H2219   1.083       .  S
C2210      C2211   1.406       .  A
C2210      C2215   1.490       .  S
C2211      C2212   1.399       .  A
C2211      H2216   1.083       .  S
C2212      C2213   1.408       .  A
C2212      H2217   1.081       .  S
C2213      C2214   1.406       .  A
C2214      H2218   1.081       .  S
C2215      C2220   1.406       .  A
C2215      C2224   1.405   1_455  A
C2220      C2221   1.399   1_455  A
C2220      H2225   1.083       .  S
C2221      C2222   1.407       .  A
C2221      H2226   1.081       .  S
C2222      C2223   1.407       .  A
C2223      C2224   1.397       .  A
C2223      H2227   1.081       .  S
C2224      H2228   1.083       .  S
C2229      C2230   1.408       .  A
C2229      C2234   1.400       .  A
C2229      H2239   1.083       .  S
C2230      C2231   1.406       .  A
C2230      C2235   1.488       .  S
C2231      C2232   1.395       .  A
C2231      H2236   1.082       .  S
C2232      C2233   1.404   1_554  A
C2232      H2237   1.083   1_554  S
C2233      C2234   1.404   1_556  A
C2234      H2238   1.083       .  S
C2235      C2240   1.406       .  A
C2235      C2244   1.408       .  A
C2240      C2241   1.398       .  A
C2240      H2245   1.083       .  S
C2241      C2242   1.406       .  A
C2241      H2246   1.083       .  S
C2242      C2243   1.404       .  A
C2243      C2244   1.398       .  A
C2243      H2247   1.083       .  S
C2244      H2248   1.083       .  S
C2249      C2250   1.404       .  A
C2249      C2254   1.398       .  A
C2249      H2259   1.083   1_545  S
C2250      C2251   1.404       .  A
C2250      C2255   1.485   1_545  S
C2251      C2252   1.397       .  A
C2251      H2256   1.083       .  S
C2252      C2253   1.407       .  A
C2252      H2257   1.081       .  S
C2253      C2254   1.408       .  A
C2254      H2258   1.081       .  S
C2255      C2260   1.405       .  A
C2255      C2264   1.404       .  A
C2260      C2261   1.399       .  A
C2260      H2265   1.083   1_565  S
C2261      C2262   1.408       .  A
C2261      H2266   1.081       .  S
C2262      C2263   1.407       .  A
C2263      C2264   1.397       .  A
C2263      H2267   1.081       .  S
C2264      H2268   1.083       .  S
C2269      C2270   1.409       .  A
C2269      C2274   1.404   1_455  A
C2269      H2279   1.082       .  S
C2270      C2271   1.408       .  A
C2270      C2275   1.495       .  S
C2271      C2272   1.395   1_455  A
C2271      H2276   1.082       .  S
C2272      C2273   1.403       .  A
C2272      H2277   1.083       .  S
C2273      C2274   1.406       .  A
C2274      H2278   1.083       .  S
C2275      C2280   1.410       .  A
C2275      C2284   1.406       .  A
C2280      C2281   1.405       .  A
C2280      H2285   1.082       .  S
C2281      C2282   1.406       .  A
C2281      H2286   1.083       .  S
C2282      C2283   1.405       .  A
C2283      C2284   1.393       .  A
C2283      H2287   1.083       .  S
C2284      H2288   1.082       .  S
C2289      C2290   1.406       .  A
C2289      C2294   1.400       .  A
C2289      H2299   1.083       .  S
C2290      C2291   1.405       .  A
C2290      C2295   1.489       .  S
C2291      C2292   1.399       .  A
C2291      H2296   1.083       .  S
C2292      C2293   1.407       .  A
C2292      H2297   1.081       .  S
C2293      C2294   1.407       .  A
C2294      H2298   1.082       .  S
C2295      C2300   1.405       .  A
C2295      C2304   1.405       .  A
C2300      C2301   1.400       .  A
C2300      H2305   1.083       .  S
C2301      C2302   1.407       .  A
C2301      H2306   1.081       .  S
C2302      C2303   1.408       .  A
C2303      C2304   1.400       .  A
C2303      H2307   1.081       .  S
C2304      H2308   1.083       .  S
C2309      C2310   1.406       .  A
C2309      C2314   1.400       .  A
C2309      H2319   1.083       .  S
C2310      C2311   1.405       .  A
C2310      C2315   1.489       .  S
C2311      C2312   1.398       .  A
C2311      H2316   1.083       .  S
C2312      C2313   1.406       .  A
C2312      H2317   1.082       .  S
C2313      C2314   1.407       .  A
C2314      H2318   1.082       .  S
C2315      C2320   1.406       .  A
C2315      C2324   1.404       .  A
C2320      C2321   1.400       .  A
C2320      H2325   1.083       .  S
C2321      C2322   1.406       .  A
C2321      H2326   1.081       .  S
C2322      C2323   1.409       .  A
C2323      C2324   1.398       .  A
C2323      H2327   1.081       .  S
C2324      H2328   1.083       .  S
C2329      C2330   1.404       .  A
C2329      C2334   1.396       .  A
C2329      H2339   1.083       .  S
C2330      C2331   1.408       .  A
C2330      C2335   1.492   1_565  S
C2331      C2332   1.403       .  A
C2331      H2336   1.083   1_565  S
C2332      C2333   1.407       .  A
C2332      H2337   1.082       .  S
C2333      C2334   1.407       .  A
C2334      H2338   1.081       .  S
C2335      C2340   1.405       .  A
C2335      C2344   1.408       .  A
C2340      C2341   1.399       .  A
C2340      H2345   1.083       .  S
C2341      C2342   1.409       .  A
C2341      H2346   1.083       .  S
C2342      C2343   1.405       .  A
C2343      C2344   1.400       .  A
C2343      H2347   1.083       .  S
C2344      H2348   1.083   1_545  S
C2349      C2350   1.405       .  A
C2349      C2354   1.399       .  A
C2349      H2359   1.083       .  S
C2350      C2351   1.407       .  A
C2350      C2355   1.491       .  S
C2351      C2352   1.400       .  A
C2351      H2356   1.083       .  S
C2352      C2353   1.407       .  A
C2352      H2357   1.081       .  S
C2353      C2354   1.408       .  A
C2354      H2358   1.081       .  S
C2355      C2360   1.406       .  A
C2355      C2364   1.407       .  A
C2360      C2361   1.399       .  A
C2360      H2365   1.083       .  S
C2361      C2362   1.407       .  A
C2361      H2366   1.081       .  S
C2362      C2363   1.407       .  A
C2363      C2364   1.401       .  A
C2363      H2367   1.082       .  S
C2364      H2368   1.083       .  S
C2369      C2370   1.411       .  A
C2369      C2374   1.402       .  A
C2369      H2379   1.082       .  S
C2370      C2371   1.407       .  A
C2370      C2375   1.495       .  S
C2371      C2372   1.395       .  A
C2371      H2376   1.082       .  S
C2372      C2373   1.404       .  A
C2372      H2377   1.083       .  S
C2373      C2374   1.403       .  A
C2374      H2378   1.083       .  S
C2375      C2380   1.408       .  A
C2375      C2384   1.409       .  A
C2380      C2381   1.400       .  A
C2380      H2385   1.082       .  S
C2381      C2382   1.405       .  A
C2381      H2386   1.083       .  S
C2382      C2383   1.403       .  A
C2383      C2384   1.397       .  A
C2383      H2387   1.083       .  S
C2384      H2388   1.082       .  S
C2389      C2390   1.411   1_556  A
C2389      C2394   1.399       .  A
C2389      H2399   1.082   1_556  S
C2390      C2391   1.411       .  A
C2390      C2395   1.501       .  S
C2391      C2392   1.401   1_554  A
C2391      H2396   1.081       .  S
C2392      C2393   1.403       .  A
C2392      H2397   1.083       .  S
C2393      C2394   1.403       .  A
C2394      H2398   1.083       .  S
C2395      C2400   1.410       .  A
C2395      C2404   1.411       .  A
C2400      C2401   1.399       .  A
C2400      H2405   1.081       .  S
C2401      C2402   1.403       .  A
C2401      H2406   1.083       .  S
C2402      C2403   1.404       .  A
C2403      C2404   1.402       .  A
C2403      H2407   1.083       .  S
C2404      H2408   1.082       .  S
C2409      C2410   1.406       .  A
C2409      C2414   1.395       .  A
C2409      H2419   1.082       .  S
C2410      C2411   1.410       .  A
C2410      C2415   1.491       .  S
C2411      C2412   1.400       .  A
C2411      H2416   1.082       .  S
C2412      C2413   1.401       .  A
C2412      H2417   1.083       .  S
C2413      C2414   1.404       .  A
C2414      H2418   1.083       .  S
C2415      C2420   1.409       .  A
C2415      C2424   1.406       .  A
C2420      C2421   1.398       .  A
C2420      H2425   1.082       .  S
C2421      C2422   1.404       .  A
C2421      H2426   1.083       .  S
C2422      C2423   1.405       .  A
C2423      C2424   1.397       .  A
C2423      H2427   1.083       .  S
C2424      H2428   1.082       .  S
C2429      C2430   1.404       .  A
C2429      C2434   1.398       .  A
C2429      H2439   1.083       .  S
C2430      C2431   1.405       .  A
C2430      C2435   1.487   1_545  S
C2431      C2432   1.400       .  A
C2431      H2436   1.083       .  S
C2432      C2433   1.407       .  A
C2432      H2437   1.081       .  S
C2433      C2434   1.408       .  A
C2434      H2438   1.081       .  S
C2435      C2440   1.405       .  A
C2435      C2444   1.405       .  A
C2440      C2441   1.400       .  A
C2440      H2445   1.083       .  S
C2441      C2442   1.407       .  A
C2441      H2446   1.081       .  S
C2442      C2443   1.408       .  A
C2443      C2444   1.399       .  A
C2443      H2447   1.081       .  S
C2444      H2448   1.083       .  S
C2449      C2450   1.406       .  A
C2449      C2454   1.403       .  A
C2449      H2459   1.083       .  S
C2450      C2451   1.403       .  A
C2450      C2455   1.484       .  S
C2451      C2452   1.393       .  A
C2451      H2456   1.083       .  S
C2452      C2453   1.406       .  A
C2452      H2457   1.081       .  S
C2453      C2454   1.407       .  A
C2454      H2458   1.083       .  S
C2455      C2460   1.406       .  A
C2455      C2464   1.403       .  A
C2460      C2461   1.403       .  A
C2460      H2465   1.083       .  S
C2461      C2462   1.406       .  A
C2461      H2466   1.082       .  S
C2462      C2463   1.405       .  A
C2463      C2464   1.393       .  A
C2463      H2467   1.082       .  S
C2464      H2468   1.083       .  S
C2469      C2470   1.407       .  A
C2469      C2474   1.397       .  A
C2469      H2479   1.082       .  S
C2470      C2471   1.409       .  A
C2470      C2475   1.491       .  S
C2471      C2472   1.400       .  A
C2471      H2476   1.082       .  S
C2472      C2473   1.402       .  A
C2472      H2477   1.083       .  S
C2473      C2474   1.403       .  A
C2474      H2478   1.083       .  S
C2475      C2480   1.407       .  A
C2475      C2484   1.407       .  A
C2480      C2481   1.396       .  A
C2480      H2485   1.082       .  S
C2481      C2482   1.405       .  A
C2481      H2486   1.083       .  S
C2482      C2483   1.406       .  A
C2483      C2484   1.400       .  A
C2483      H2487   1.083       .  S
C2484      H2488   1.082       .  S
C2489      C2490   1.403       .  A
C2489      C2494   1.396       .  A
C2489      H2499   1.083       .  S
C2490      C2491   1.405       .  A
C2490      C2495   1.485       .  S
C2491      C2492   1.399       .  A
C2491      H2496   1.083       .  S
C2492      C2493   1.407       .  A
C2492      H2497   1.081       .  S
C2493      C2494   1.408       .  A
C2494      H2498   1.080       .  S
C2495      C2500   1.404       .  A
C2495      C2504   1.405       .  A
C2500      C2501   1.397       .  A
C2500      H2505   1.083       .  S
C2501      C2502   1.408       .  A
C2501      H2506   1.081       .  S
C2502      C2503   1.406       .  A
C2503      C2504   1.398       .  A
C2503      H2507   1.081       .  S
C2504      H2508   1.083       .  S
C2509      C2510   1.406       .  A
C2509      C2514   1.399       .  A
C2509      H2519   1.083       .  S
C2510      C2511   1.404       .  A
C2510      C2515   1.483       .  S
C2511      C2512   1.395       .  A
C2511      H2516   1.083       .  S
C2512      C2513   1.404       .  A
C2512      H2517   1.083       .  S
C2513      C2514   1.404       .  A
C2514      H2518   1.082       .  S
C2515      C2520   1.405       .  A
C2515      C2524   1.403       .  A
C2520      C2521   1.399       .  A
C2520      H2525   1.083       .  S
C2521      C2522   1.406       .  A
C2521      H2526   1.081       .  S
C2522      C2523   1.407       .  A
C2523      C2524   1.395       .  A
C2523      H2527   1.081       .  S
C2524      H2528   1.083       .  S
C2529      C2530   1.407       .  A
C2529      C2534   1.398       .  A
C2529      H2539   1.082       .  S
C2530      C2531   1.408       .  A
C2530      C2535   1.488       .  S
C2531      C2532   1.396       .  A
C2531      H2536   1.082       .  S
C2532      C2533   1.403       .  A
C2532      H2537   1.083       .  S
C2533      C2534   1.403       .  A
C2534      H2538   1.083       .  S
C2535      C2540   1.408       .  A
C2535      C2544   1.406       .  A
C2540      C2541   1.400       .  A
C2540      H2545   1.082       .  S
C2541      C2542   1.405       .  A
C2541      H2546   1.083       .  S
C2542      C2543   1.405       .  A
C2543      C2544   1.394       .  A
C2543      H2547   1.083       .  S
C2544      H2548   1.082       .  S
C2549      C2550   1.407       .  A
C2549      C2554   1.398       .  A
C2549      H2559   1.082       .  S
C2550      C2551   1.408       .  A
C2550      C2555   1.491       .  S
C2551      C2552   1.400       .  A
C2551      H2556   1.082       .  S
C2552      C2553   1.404       .  A
C2552      H2557   1.083       .  S
C2553      C2554   1.404       .  A
C2554      H2558   1.083       .  S
C2555      C2560   1.407       .  A
C2555      C2564   1.407       .  A
C2560      C2561   1.398       .  A
C2560      H2565   1.082       .  S
C2561      C2562   1.404       .  A
C2561      H2566   1.082       .  S
C2562      C2563   1.405       .  A
C2563      C2564   1.399       .  A
C2563      H2567   1.082       .  S
C2564      H2568   1.083       .  S
C2569      C2570   1.406       .  A
C2569      C2574   1.399       .  A
C2569      H2579   1.083       .  S
C2570      C2571   1.405       .  A
C2570      C2575   1.487       .  S
C2571      C2572   1.397       .  A
C2571      H2576   1.083       .  S
C2572      C2573   1.406       .  A
C2572      H2577   1.082       .  S
C2573      C2574   1.406       .  A
C2574      H2578   1.082       .  S
C2575      C2580   1.407       .  A
C2575      C2584   1.404       .  A
C2580      C2581   1.400       .  A
C2580      H2585   1.083       .  S
C2581      C2582   1.406       .  A
C2581      H2586   1.082       .  S
C2582      C2583   1.407       .  A
C2583      C2584   1.396       .  A
C2583      H2587   1.082       .  S
C2584      H2588   1.083       .  S
C2589      C2590   1.407       .  A
C2589      C2594   1.395       .  A
C2589      H2599   1.082       .  S
C2590      C2591   1.406       .  A
C2590      C2595   1.486       .  S
C2591      C2592   1.397       .  A
C2591      H2596   1.082       .  S
C2592      C2593   1.406       .  A
C2592      H2597   1.083       .  S
C2593      C2594   1.404       .  A
C2594      H2598   1.083       .  S
C2595      C2600   1.406       .  A
C2595      C2604   1.408       .  A
C2600      C2601   1.394   1_565  A
C2600      H2605   1.082       .  S
C2601      C2602   1.401       .  A
C2601      H2606   1.083       .  S
C2602      C2603   1.402       .  A
C2603      C2604   1.399   1_545  A
C2603      H2607   1.083       .  S
C2604      H2608   1.082       .  S
C2609      C2610   1.408       .  A
C2609      C2614   1.398       .  A
C2609      H2619   1.082       .  S
C2610      C2611   1.409       .  A
C2610      C2615   1.495       .  S
C2611      C2612   1.400       .  A
C2611      H2616   1.082       .  S
C2612      C2613   1.404       .  A
C2612      H2617   1.082       .  S
C2613      C2614   1.404       .  A
C2614      H2618   1.083       .  S
C2615      C2620   1.409       .  A
C2615      C2624   1.409       .  A
C2620      C2621   1.398       .  A
C2620      H2625   1.082       .  S
C2621      C2622   1.403       .  A
C2621      H2626   1.083       .  S
C2622      C2623   1.403       .  A
C2623      C2624   1.400       .  A
C2623      H2627   1.083   1_565  S
C2624      H2628   1.082       .  S
C2629      C2630   1.405       .  A
C2629      C2634   1.405       .  A
C2629      H2639   1.083       .  S
C2630      C2631   1.402       .  A
C2630      C2635   1.480       .  S
C2631      C2632   1.392       .  A
C2631      H2636   1.083       .  S
C2632      C2633   1.405       .  A
C2632      H2637   1.082       .  S
C2633      C2634   1.407       .  A
C2634      H2638   1.083       .  S
C2635      C2640   1.404       .  A
C2635      C2644   1.402       .  A
C2640      C2641   1.403       .  A
C2640      H2645   1.083       .  S
C2641      C2642   1.409       .  A
C2641      H2646   1.082       .  S
C2642      C2643   1.406       .  A
C2643      C2644   1.393       .  A
C2643      H2647   1.081       .  S
C2644      H2648   1.084       .  S
C2649      C2650   1.407       .  A
C2649      C2654   1.397       .  A
C2649      H2659   1.082       .  S
C2650      C2651   1.409       .  A
C2650      C2655   1.491       .  S
C2651      C2652   1.398       .  A
C2651      H2656   1.082       .  S
C2652      C2653   1.403       .  A
C2652      H2657   1.083       .  S
C2653      C2654   1.405       .  A
C2654      H2658   1.083       .  S
C2655      C2660   1.410       .  A
C2655      C2664   1.406       .  A
C2660      C2661   1.400       .  A
C2660      H2665   1.082       .  S
C2661      C2662   1.403       .  A
C2661      H2666   1.083       .  S
C2662      C2663   1.404       .  A
C2663      C2664   1.396       .  A
C2663      H2667   1.083       .  S
C2664      H2668   1.082       .  S
C2669      C2670   1.410       .  A
C2669      C2674   1.401       .  A
C2669      H2679   1.082       .  S
C2670      C2671   1.410       .  A
C2670      C2675   1.499       .  S
C2671      C2672   1.398       .  A
C2671      H2676   1.081       .  S
C2672      C2673   1.403       .  A
C2672      H2677   1.083       .  S
C2673      C2674   1.404       .  A
C2674      H2678   1.083       .  S
C2675      C2680   1.411       .  A
C2675      C2684   1.409       .  A
C2680      C2681   1.401       .  A
C2680      H2685   1.081       .  S
C2681      C2682   1.403       .  A
C2681      H2686   1.083       .  S
C2682      C2683   1.402       .  A
C2683      C2684   1.397       .  A
C2683      H2687   1.083       .  S
C2684      H2688   1.081       .  S
C2689      C2690   1.412       .  A
C2689      C2694   1.403       .  A
C2689      H2699   1.082       .  S
C2690      C2691   1.408       .  A
C2690      C2695   1.497       .  S
C2691      C2692   1.396       .  A
C2691      H2696   1.082       .  S
C2692      C2693   1.403       .  A
C2692      H2697   1.083       .  S
C2693      C2694   1.402       .  A
C2694      H2698   1.083       .  S
C2695      C2700   1.408       .  A
C2695      C2704   1.410       .  A
C2700      C2701   1.401       .  A
C2700      H2705   1.082       .  S
C2701      C2702   1.407       .  A
C2701      H2706   1.083       .  S
C2702      C2703   1.404       .  A
C2703      C2704   1.398       .  A
C2703      H2707   1.083       .  S
C2704      H2708   1.082       .  S
C2709      C2710   1.409       .  A
C2709      C2714   1.400       .  A
C2709      H2719   1.082       .  S
C2710      C2711   1.408       .  A
C2710      C2715   1.492       .  S
C2711      C2712   1.397       .  A
C2711      H2716   1.082       .  S
C2712      C2713   1.402       .  A
C2712      H2717   1.083       .  S
C2713      C2714   1.403       .  A
C2714      H2718   1.083       .  S
C2715      C2720   1.408       .  A
C2715      C2724   1.408       .  A
C2720      C2721   1.399   1_554  A
C2720      H2725   1.082       .  S
C2721      C2722   1.405       .  A
C2721      H2726   1.082       .  S
C2722      C2723   1.403       .  A
C2723      C2724   1.397   1_556  A
C2723      H2727   1.083       .  S
C2724      H2728   1.082       .  S
C2729      C2730   1.404       .  A
C2729      C2734   1.392       .  A
C2729      H2739   1.083       .  S
C2730      C2731   1.407       .  A
C2730      C2735   1.483       .  S
C2731      C2732   1.404       .  A
C2731      H2736   1.083       .  S
C2732      C2733   1.405       .  A
C2732      H2737   1.083       .  S
C2733      C2734   1.402       .  A
C2734      H2738   1.083       .  S
C2735      C2740   1.403       .  A
C2735      C2744   1.405       .  A
C2740      C2741   1.394       .  A
C2740      H2745   1.083       .  S
C2741      C2742   1.406       .  A
C2741      H2746   1.081       .  S
C2742      C2743   1.407       .  A
C2743      C2744   1.402       .  A
C2743      H2747   1.082       .  S
C2744      H2748   1.083       .  S
C2749      C2750   1.405       .  A
C2749      C2754   1.394       .  A
C2749      H2759   1.083       .  S
C2750      C2751   1.409       .  A
C2750      C2755   1.491       .  S
C2751      C2752   1.404       .  A
C2751      H2756   1.083       .  S
C2752      C2753   1.405       .  A
C2752      H2757   1.083       .  S
C2753      C2754   1.403       .  A
C2754      H2758   1.083       .  S
C2755      C2760   1.407       .  A
C2755      C2764   1.407       .  A
C2760      C2761   1.397       .  A
C2760      H2765   1.083       .  S
C2761      C2762   1.405       .  A
C2761      H2766   1.083       .  S
C2762      C2763   1.407       .  A
C2763      C2764   1.402       .  A
C2763      H2767   1.083       .  S
C2764      H2768   1.083       .  S
C2769      C2770   1.406       .  A
C2769      C2774   1.400       .  A
C2769      H2779   1.083       .  S
C2770      C2771   1.405       .  A
C2770      C2775   1.489   1_655  S
C2771      C2772   1.400       .  A
C2771      H2776   1.083       .  S
C2772      C2773   1.407       .  A
C2772      H2777   1.081       .  S
C2773      C2774   1.407       .  A
C2774      H2778   1.082       .  S
C2775      C2780   1.405       .  A
C2775      C2784   1.406       .  A
C2780      C2781   1.399       .  A
C2780      H2785   1.083       .  S
C2781      C2782   1.408       .  A
C2781      H2786   1.081       .  S
C2782      C2783   1.407       .  A
C2783      C2784   1.400       .  A
C2783      H2787   1.081       .  S
C2784      H2788   1.083       .  S
C2789      C2790   1.409       .  A
C2789      C2794   1.403       .  A
C2789      H2799   1.082       .  S
C2790      C2791   1.407       .  A
C2790      C2795   1.495       .  S
C2791      C2792   1.396       .  A
C2791      H2796   1.082       .  S
C2792      C2793   1.405       .  A
C2792      H2797   1.082       .  S
C2793      C2794   1.405       .  A
C2794      H2798   1.082       .  S
C2795      C2800   1.408       .  A
C2795      C2804   1.408       .  A
C2800      C2801   1.402       .  A
C2800      H2805   1.082       .  S
C2801      C2802   1.406       .  A
C2801      H2806   1.083       .  S
C2802      C2803   1.404       .  A
C2803      C2804   1.398       .  A
C2803      H2807   1.083       .  S
C2804      H2808   1.082       .  S
C2809      C2810   1.409       .  A
C2809      C2814   1.400       .  A
C2809      H2819   1.082       .  S
C2810      C2811   1.408       .  A
C2810      C2815   1.494       .  S
C2811      C2812   1.397       .  A
C2811      H2816   1.082       .  S
C2812      C2813   1.403       .  A
C2812      H2817   1.082       .  S
C2813      C2814   1.404       .  A
C2814      H2818   1.082       .  S
C2815      C2820   1.410       .  A
C2815      C2824   1.409       .  A
C2820      C2821   1.400       .  A
C2820      H2825   1.082       .  S
C2821      C2822   1.401       .  A
C2821      H2826   1.083       .  S
C2822      C2823   1.400       .  A
C2823      C2824   1.397       .  A
C2823      H2827   1.083       .  S
C2824      H2828   1.082       .  S
C2829      C2830   1.406       .  A
C2829      C2834   1.395       .  A
C2829      H2839   1.082       .  S
C2830      C2831   1.409       .  A
C2830      C2835   1.488       .  S
C2831      C2832   1.398       .  A
C2831      H2836   1.082       .  S
C2832      C2833   1.402       .  A
C2832      H2837   1.083       .  S
C2833      C2834   1.403       .  A
C2834      H2838   1.083       .  S
C2835      C2840   1.409       .  A
C2835      C2844   1.406       .  A
C2840      C2841   1.398       .  A
C2840      H2845   1.082       .  S
C2841      C2842   1.401       .  A
C2841      H2846   1.083       .  S
C2842      C2843   1.403       .  A
C2843      C2844   1.396       .  A
C2843      H2847   1.083       .  S
C2844      H2848   1.082       .  S
C2849      C2850   1.407       .  A
C2849      C2854   1.396       .  A
C2849      H2859   1.082       .  S
C2850      C2851   1.410       .  A
C2850      C2855   1.493       .  S
C2851      C2852   1.400       .  A
C2851      H2856   1.082       .  S
C2852      C2853   1.403       .  A
C2852      H2857   1.083       .  S
C2853      C2854   1.403       .  A
C2854      H2858   1.083       .  S
C2855      C2860   1.409       .  A
C2855      C2864   1.408       .  A
C2860      C2861   1.397       .  A
C2860      H2865   1.082       .  S
C2861      C2862   1.403       .  A
C2861      H2866   1.083       .  S
C2862      C2863   1.405       .  A
C2863      C2864   1.399       .  A
C2863      H2867   1.083       .  S
C2864      H2868   1.082       .  S
C2869      C2870   1.403       .  A
C2869      C2874   1.398       .  A
C2869      H2879   1.083       .  S
C2870      C2871   1.404       .  A
C2870      C2875   1.480       .  S
C2871      C2872   1.400       .  A
C2871      H2876   1.083       .  S
C2872      C2873   1.406       .  A
C2872      H2877   1.083       .  S
C2873      C2874   1.406       .  A
C2874      H2878   1.082       .  S
C2875      C2880   1.404       .  A
C2875      C2884   1.403       .  A
C2880      C2881   1.399       .  A
C2880      H2885   1.083       .  S
C2881      C2882   1.405       .  A
C2881      H2886   1.083       .  S
C2882      C2883   1.406       .  A
C2883      C2884   1.399       .  A
C2883      H2887   1.082       .  S
C2884      H2888   1.083       .  S
C2889      C2890   1.411       .  A
C2889      C2894   1.399       .  A
C2889      H2899   1.082       .  S
C2890      C2891   1.407       .  A
C2890      C2895   1.493       .  S
C2891      C2892   1.397       .  A
C2891      H2896   1.082       .  S
C2892      C2893   1.403       .  A
C2892      H2897   1.083       .  S
C2893      C2894   1.401       .  A
C2894      H2898   1.083       .  S
C2895      C2900   1.407       .  A
C2895      C2904   1.411       .  A
C2900      C2901   1.397       .  A
C2900      H2905   1.082       .  S
C2901      C2902   1.404       .  A
C2901      H2906   1.083       .  S
C2902      C2903   1.403       .  A
C2903      C2904   1.400       .  A
C2903      H2907   1.083       .  S
C2904      H2908   1.082       .  S
C2909      C2910   1.410       .  A
C2909      C2914   1.398       .  A
C2909      H2919   1.082       .  S
C2910      C2911   1.408       .  A
C2910      C2915   1.494       .  S
C2911      C2912   1.398   1_554  A
C2911      H2916   1.082       .  S
C2912      C2913   1.404       .  A
C2912      H2917   1.083       .  S
C2913      C2914   1.403   1_556  A
C2914      H2918   1.083       .  S
C2915      C2920   1.408       .  A
C2915      C2924   1.410       .  A
C2920      C2921   1.396       .  A
C2920      H2925   1.082       .  S
C2921      C2922   1.404       .  A
C2921      H2926   1.083       .  S
C2922      C2923   1.402       .  A
C2923      C2924   1.400       .  A
C2923      H2927   1.083       .  S
C2924      H2928   1.082       .  S
C2929      C2930   1.404       .  A
C2929      C2934   1.401   1_554  A
C2929      H2939   1.083   1_554  S
C2930      C2931   1.403       .  A
C2930      C2935   1.479       .  S
C2931      C2932   1.397       .  A
C2931      H2936   1.083       .  S
C2932      C2933   1.404       .  A
C2932      H2937   1.083       .  S
C2933      C2934   1.406   1_554  A
C2934      H2938   1.083       .  S
C2935      C2940   1.404       .  A
C2935      C2944   1.404       .  A
C2940      C2941   1.400       .  A
C2940      H2945   1.083       .  S
C2941      C2942   1.406       .  A
C2941      H2946   1.083       .  S
C2942      C2943   1.404       .  A
C2943      C2944   1.397       .  A
C2943      H2947   1.083       .  S
C2944      H2948   1.083       .  S
C2949      C2950   1.407       .  A
C2949      C2954   1.397       .  A
C2949      H2959   1.082       .  S
C2950      C2951   1.409       .  A
C2950      C2955   1.490       .  S
C2951      C2952   1.397       .  A
C2951      H2956   1.082       .  S
C2952      C2953   1.401       .  A
C2952      H2957   1.083       .  S
C2953      C2954   1.404       .  A
C2954      H2958   1.083       .  S
C2955      C2960   1.409       .  A
C2955      C2964   1.407       .  A
C2960      C2961   1.398       .  A
C2960      H2965   1.082       .  S
C2961      C2962   1.402       .  A
C2961      H2966   1.083       .  S
C2962      C2963   1.403       .  A
C2963      C2964   1.395       .  A
C2963      H2967   1.083       .  S
C2964      H2968   1.082       .  S
C2969      C2970   1.408       .  A
C2969      C2974   1.395       .  A
C2969      H2979   1.082       .  S
C2970      C2971   1.410       .  A
C2970      C2975   1.494       .  S
C2971      C2972   1.402       .  A
C2971      H2976   1.082   1_556  S
C2972      C2973   1.403       .  A
C2972      H2977   1.083   1_556  S
C2973      C2974   1.402       .  A
C2974      H2978   1.083       .  S
C2975      C2980   1.408       .  A
C2975      C2984   1.409       .  A
C2980      C2981   1.396       .  A
C2980      H2985   1.082       .  S
C2981      C2982   1.403       .  A
C2981      H2986   1.083       .  S
C2982      C2983   1.405       .  A
C2983      C2984   1.401       .  A
C2983      H2987   1.083       .  S
C2984      H2988   1.082       .  S
C2989      C2990   1.410       .  A
C2989      C2994   1.402       .  A
C2989      H2999   1.082       .  S
C2990      C2991   1.409       .  A
C2990      C2995   1.500       .  S
C2991      C2992   1.400       .  A
C2991      H2996   1.082       .  S
C2992      C2993   1.405       .  A
C2992      H2997   1.082       .  S
C2993      C2994   1.405       .  A
C2994      H2998   1.083       .  S
C2995      C3000   1.409       .  A
C2995      C3004   1.410       .  A
C3000      C3001   1.402       .  A
C3000      H3005   1.082       .  S
C3001      C3002   1.405       .  A
C3001      H3006   1.083       .  S
C3002      C3003   1.404       .  A
C3003      C3004   1.400       .  A
C3003      H3007   1.083       .  S
C3004      H3008   1.082       .  S
C3009      C3010   1.402       .  A
C3009      C3014   1.393       .  A
C3009      H3019   1.083       .  S
C3010      C3011   1.406       .  A
C3010      C3015   1.485       .  S
C3011      C3012   1.405       .  A
C3011      H3016   1.083       .  S
C3012      C3013   1.407       .  A
C3012      H3017   1.082       .  S
C3013      C3014   1.407       .  A
C3014      H3018   1.081       .  S
C3015      C3020   1.403       .  A
C3015      C3024   1.407       .  A
C3020      C3021   1.392       .  A
C3020      H3025   1.083       .  S
C3021      C3022   1.404       .  A
C3021      H3026   1.082       .  S
C3022      C3023   1.406       .  A
C3023      C3024   1.406       .  A
C3023      H3027   1.083       .  S
C3024      H3028   1.083       .  S
C3029      C3030   1.406       .  A
C3029      C3034   1.395       .  A
C3029      H3039   1.082       .  S
C3030      C3031   1.411       .  A
C3030      C3035   1.492       .  S
C3031      C3032   1.402       .  A
C3031      H3036   1.082       .  S
C3032      C3033   1.402       .  A
C3032      H3037   1.083       .  S
C3033      C3034   1.404       .  A
C3034      H3038   1.083       .  S
C3035      C3040   1.409       .  A
C3035      C3044   1.406       .  A
C3040      C3041   1.398       .  A
C3040      H3045   1.082       .  S
C3041      C3042   1.404       .  A
C3041      H3046   1.083       .  S
C3042      C3043   1.406       .  A
C3043      C3044   1.398       .  A
C3043      H3047   1.083       .  S
C3044      H3048   1.082       .  S
C3049      C3050   1.409       .  A
C3049      C3054   1.401       .  A
C3049      H3059   1.082       .  S
C3050      C3051   1.409       .  A
C3050      C3055   1.497       .  S
C3051      C3052   1.398       .  A
C3051      H3056   1.082       .  S
C3052      C3053   1.403       .  A
C3052      H3057   1.083       .  S
C3053      C3054   1.405       .  A
C3054      H3058   1.083       .  S
C3055      C3060   1.409       .  A
C3055      C3064   1.409       .  A
C3060      C3061   1.401       .  A
C3060      H3065   1.082       .  S
C3061      C3062   1.405       .  A
C3061      H3066   1.083       .  S
C3062      C3063   1.404       .  A
C3063      C3064   1.398       .  A
C3063      H3067   1.082       .  S
C3064      H3068   1.082       .  S
C3069      C3070   1.404       .  A
C3069      C3074   1.397       .  A
C3069      H3079   1.083       .  S
C3070      C3071   1.407       .  A
C3070      C3075   1.485       .  S
C3071      C3072   1.400       .  A
C3071      H3076   1.083       .  S
C3072      C3073   1.405       .  A
C3072      H3077   1.082       .  S
C3073      C3074   1.406       .  A
C3074      H3078   1.082       .  S
C3075      C3080   1.403       .  A
C3075      C3084   1.407       .  A
C3080      C3081   1.395       .  A
C3080      H3085   1.083       .  S
C3081      C3082   1.406       .  A
C3081      H3086   1.082       .  S
C3082      C3083   1.406       .  A
C3083      C3084   1.402       .  A
C3083      H3087   1.082       .  S
C3084      H3088   1.083       .  S
C3089      C3090   1.408       .  A
C3089      C3094   1.397       .  A
C3089      H3099   1.082       .  S
C3090      C3091   1.409       .  A
C3090      C3095   1.493   1_455  S
C3091      C3092   1.400       .  A
C3091      H3096   1.082   1_455  S
C3092      C3093   1.403       .  A
C3092      H3097   1.083       .  S
C3093      C3094   1.403       .  A
C3094      H3098   1.083       .  S
C3095      C3100   1.408       .  A
C3095      C3104   1.408       .  A
C3100      C3101   1.397       .  A
C3100      H3105   1.082   1_655  S
C3101      C3102   1.404       .  A
C3101      H3106   1.083       .  S
C3102      C3103   1.406       .  A
C3103      C3104   1.400       .  A
C3103      H3107   1.083       .  S
C3104      H3108   1.082       .  S
C3109      C3110   1.407       .  A
C3109      C3114   1.404       .  A
C3109      H3119   1.082       .  S
C3110      C3111   1.405       .  A
C3110      C3115   1.494   1_655  S
C3111      C3112   1.398       .  A
C3111      H3116   1.083       .  S
C3112      C3113   1.408       .  A
C3112      H3117   1.080       .  S
C3113      C3114   1.408       .  A
C3114      H3118   1.081       .  S
C3115      C3120   1.406       .  A
C3115      C3124   1.407       .  A
C3120      C3121   1.399       .  A
C3120      H3125   1.083   1_455  S
C3121      C3122   1.407       .  A
C3121      H3126   1.081       .  S
C3122      C3123   1.408       .  A
C3123      C3124   1.403       .  A
C3123      H3127   1.081       .  S
C3124      H3128   1.083       .  S
C3129      C3130   1.404       .  A
C3129      C3134   1.396       .  A
C3129      H3139   1.083       .  S
C3130      C3131   1.408       .  A
C3130      C3135   1.489       .  S
C3131      C3132   1.405       .  A
C3131      H3136   1.083       .  S
C3132      C3133   1.406       .  A
C3132      H3137   1.083       .  S
C3133      C3134   1.406       .  A
C3134      H3138   1.082       .  S
C3135      C3140   1.405       .  A
C3135      C3144   1.406       .  A
C3140      C3141   1.397       .  A
C3140      H3145   1.083       .  S
C3141      C3142   1.405       .  A
C3141      H3146   1.082       .  S
C3142      C3143   1.407       .  A
C3143      C3144   1.404       .  A
C3143      H3147   1.082       .  S
C3144      H3148   1.083       .  S
C3149      C3150   1.405       .  A
C3149      C3154   1.402       .  A
C3149      H3159   1.083       .  S
C3150      C3151   1.402       .  A
C3150      C3155   1.481       .  S
C3151      C3152   1.394       .  A
C3151      H3156   1.083       .  S
C3152      C3153   1.406       .  A
C3152      H3157   1.082       .  S
C3153      C3154   1.408       .  A
C3154      H3158   1.082       .  S
C3155      C3160   1.403       .  A
C3155      C3164   1.404       .  A
C3160      C3161   1.395       .  A
C3160      H3165   1.083       .  S
C3161      C3162   1.406       .  A
C3161      H3166   1.083       .  S
C3162      C3163   1.408       .  A
C3163      C3164   1.401       .  A
C3163      H3167   1.083       .  S
C3164      H3168   1.083       .  S
