geometry optimzed in LAMMPS
_audit_creation_date              2020-11-30 
_audit_creation_method            'lammps2cif' 
_symmetry_space_group_name_H-M    'P1' 
_symmetry_Int_Tables_number       1 
_symmetry_cell_setting            triclinic 
loop_ 
_symmetry_equiv_pos_as_xyz 
  x,y,z 
_cell_length_a                    50.58520189 
_cell_length_b                    50.53401848572665 
_cell_length_c                    61.887816647592345 
_cell_angle_alpha                 90.19786135804041 
_cell_angle_beta                  90.0572206726656 
_cell_angle_gamma                 119.98459579753879 
loop_ 
_atom_site_label 
_atom_site_type_symbol 
_atom_site_fract_x 
_atom_site_fract_y 
_atom_site_fract_z 
_atom_site_charge 
O1          O  0.02770509  0.14111881  0.32758770    -0.88600
C2          C  0.09576729  0.19367851  0.28489774     0.87400
Mg3        Mg  0.02292629  0.15832121  0.35834528     1.58100
O4          O  0.10578681  0.13822397  0.31285204    -0.88300
O5          O  0.03299526  0.10405201  0.31403827    -0.75700
C6          C  0.15869384  0.22103217  0.40288963     0.92500
O7          O  0.05858016  0.21354555  0.32029971    -0.75500
O8          O  0.13477139  0.22322347  0.40310029    -0.83000
Mg9        Mg  0.03265213  0.16935356  0.30014156     1.58000
C10         C  0.19210982  0.16628284  0.33991711     0.92400
O11         O  0.00556389  0.12972034  0.27637847    -0.81300
H12         H  0.09165400  0.09461622  0.32001037    -0.06600
C13         C  0.15069352  0.22442239  0.33865780     0.87300
O14         O  0.04642971  0.13566468  0.37584941    -0.75800
O15         O  0.07463713  0.16991895  0.29239593    -0.88500
O16         O  0.17989172  0.16494341  0.32163780    -0.81300
C17         C  0.13442292  0.14699488  0.25944237     0.92500
C18         C  0.01190790  0.11599874  0.26171824     0.92400
Mg19       Mg  0.13667906  0.16852763  0.36473268     1.58000
O20         O  0.16497664  0.20927501  0.38690340    -0.81300
O21         O  0.11086500  0.12407287  0.34516494    -0.75500
O22         O  0.10631825  0.13914923  0.26110746    -0.81300
O23         O  0.48806624  0.16835386  0.31003616    -0.83100
O24         O  0.06439936  0.19759625  0.40419616    -0.81400
C25         C  0.10261247  0.11805984  0.32555432     0.86800
O26         O  0.09511307  0.16790020  0.37235914    -0.88500
O27         O  0.14224630  0.19694424  0.33717096    -0.88600
O28         O  0.13777748  0.23411500  0.35146662    -0.75700
Mg29       Mg  0.07116023  0.12566570  0.28864389     1.58000
O30         O  0.15321113  0.16088374  0.27475517    -0.83000
H31         H  0.00108719  0.09763218  0.33647174    -0.06800
O32         O  0.06525318  0.19993178  0.35240885    -0.88300
H33         H  0.07910128  0.24343864  0.34507998    -0.06600
H34         H  0.07945913  0.12927070  0.38923242    -0.06800
C35         C  0.06795541  0.21991530  0.33969792     0.86800
C36         C  0.01957458  0.11369781  0.32638790     0.87400
C37         C  0.07411763  0.14391959  0.37973865     0.87400
H38         H  0.16914330  0.24052246  0.32856454    -0.06800
O39         O  0.12340415  0.20160060  0.28871423    -0.75800
Mg40       Mg  0.09953322  0.21213808  0.37685231     1.58000
H41         H  0.09062288  0.20833273  0.27523732    -0.06800
C42         C  0.47795795  0.17066197  0.32837625     0.92400
O43         O  0.01760715  0.17676596  0.39062917    -0.83000
C44         C  0.03633713  0.18971695  0.40609978     0.92500
O45         O  0.03559593  0.11340456  0.26280376    -0.83000
Mg46       Mg  0.14796838  0.18012550  0.30663246     1.58200
O47         O  0.99388987  0.17658929  0.34390563    -0.81300
O48         O  0.18052710  0.16927220  0.35730000    -0.83000
C49         C  0.17278669  0.10012703  0.18749930     0.02000
C50         C  0.17344263  0.07240973  0.18870877     0.02000
C51         C  0.18340717  0.06266559  0.17073071    -0.18500
C52         C  0.19251768  0.07991354  0.15175298     0.02000
C53         C  0.19193638  0.10743016  0.15063311     0.02000
C54         C  0.18198427  0.11725469  0.16839782    -0.18500
H55         H  0.18155972  0.13845725  0.16738788     0.04000
H56         H  0.18327035  0.04115694  0.17128826     0.04000
C57         C  0.41513884  0.05867449  0.18265791     0.02000
C58         C  0.44334334  0.08617694  0.18203229     0.02000
C59         C  0.45239936  0.10326454  0.16294967    -0.18500
C60         C  0.43379986  0.09342998  0.14439374     0.02000
C61         C  0.40570363  0.06535771  0.14488853     0.02000
C62         C  0.39671926  0.04842519  0.16414164    -0.18500
H63         H  0.37520976  0.02708271  0.16472265     0.04000
H64         H  0.47373694  0.12480097  0.16270602     0.04000
O65         O  0.14338072  0.45255769  0.34079288    -0.88600
C66         C  0.07419018  0.43057367  0.38335045     0.87400
Mg67       Mg  0.14633427  0.47461783  0.31067758     1.58100
O68         O  0.07015610  0.36911089  0.35358659    -0.88300
O69         O  0.14250781  0.41158811  0.35277185    -0.75700
C70         C  0.01052532  0.39381269  0.26351085     0.92500
O71         O  0.10677228  0.48821781  0.34938620    -0.75500
O72         O  0.03318546  0.42094130  0.26444930    -0.83000
Mg73       Mg  0.13590617  0.47320180  0.36890357     1.58000
C74         C  0.48419277  0.30415287  0.32688201     0.92400
O75         O  0.16561981  0.46325381  0.39170117    -0.81300
H76         H  0.08654306  0.34173562  0.34543209    -0.06600
C77         C  0.01790807  0.40346889  0.32876086     0.87300
O78         O  0.12521367  0.42867592  0.29240410    -0.75800
O79         O  0.09663941  0.42991795  0.37619188    -0.88500
O80         O  0.99961192  0.31685411  0.34512358    -0.81300
C81         C  0.04193620  0.34569439  0.40693460     0.92500
C82         C  0.16329185  0.44285964  0.40485025     0.92400
Mg83       Mg  0.03539126  0.36496932  0.30185890     1.58000
O84         O  0.00559446  0.37467717  0.27854867    -0.81300
O85         O  0.06395699  0.34926856  0.32125986    -0.75500
O86         O  0.06986660  0.36654231  0.40543688    -0.81300
O87         O  0.17683420  0.01844849  0.36136088    -0.83100
O88         O  0.10366395  0.47073961  0.26484902    -0.81400
C89         C  0.07394497  0.35280230  0.34050492     0.86800
O90         O  0.07561806  0.40795420  0.29444330    -0.88500
O91         O  0.02894663  0.38656963  0.32980244    -0.88600
O92         O  0.02915352  0.42652125  0.31640138    -0.75700
Mg93       Mg  0.10446666  0.39149051  0.37812832     1.58000
O94         O  0.02309117  0.34065098  0.39171423    -0.83000
H95         H  0.17335191  0.44027435  0.33094560    -0.06800
O96         O  0.10189259  0.46965062  0.31668575    -0.88300
H97         H  0.08420062  0.49577473  0.32520412    -0.06600
H98         H  0.09542666  0.38843531  0.27799274    -0.06800
C99         C  0.09722790  0.48511342  0.33001884     0.86800
C100        C  0.15415204  0.43539694  0.34118816     0.87400
C101        C  0.09839345  0.40755883  0.28770783     0.87400
H102        H  0.99862090  0.39884056  0.33882846    -0.06800
O103        O  0.04718801  0.41008410  0.37853203    -0.75800
Mg104      Mg  0.06808559  0.44627270  0.29147021     1.58000
H105        H  0.07764945  0.44961974  0.39337109    -0.06800
C106        C  0.18679718  0.03371916  0.34402930     0.92400
O107        O  0.14995252  0.49854342  0.27917850    -0.83000
C108        C  0.13123069  0.49242422  0.26369117     0.92500
O109        O  0.14106367  0.41553388  0.40377317    -0.83000
Mg110      Mg  0.02625374  0.36451654  0.36013995     1.58200
O111        O  0.17367387  0.02300839  0.32587026    -0.81300
O112        O  0.49137854  0.31862565  0.30908029    -0.83000
O113        O  0.31555304  0.36516241  0.34249464    -0.88600
C114        C  0.37149629  0.43718666  0.38184841     0.87400
Mg115      Mg  0.33039944  0.35970446  0.31124974     1.58100
O116        O  0.31104995  0.44151668  0.35786494    -0.88300
O117        O  0.27909242  0.36962581  0.35797657    -0.75700
C118        C  0.38273072  0.49225666  0.26357921     0.92500
O119        O  0.38970567  0.39857653  0.34656046    -0.75500
O120        O  0.38788183  0.47024568  0.26553711    -0.83000
Mg121      Mg  0.34761917  0.37326557  0.36822526     1.58000
C122        C  0.33103372  0.02561237  0.33278830     0.92400
O123        O  0.31092361  0.34623843  0.39278412    -0.81300
H124        H  0.26633331  0.42508859  0.35356664    -0.06600
C125        C  0.39329489  0.48970154  0.32885837     0.87300
O126        O  0.30493305  0.38122910  0.29481403    -0.75800
O127        O  0.34758406  0.41475374  0.37550275    -0.88500
O128        O  0.32840692  0.51170374  0.34856396    -0.81300
C129        C  0.32326369  0.47014661  0.41140444     0.92500
C130        C  0.29718739  0.35101891  0.40810305     0.92400
Mg131      Mg  0.33352373  0.47132000  0.30478237     1.58000
O132        O  0.36902513  0.49850734  0.27827993    -0.81300
O133        O  0.29217636  0.44483590  0.32699348    -0.75500
O134        O  0.32316231  0.44510820  0.40928602    -0.81300
O135        O  0.34601752  0.32893196  0.36048429    -0.83100
O136        O  0.36356095  0.40075684  0.26497770    -0.81400
C137        C  0.28895414  0.43685774  0.34664923     0.86800
O138        O  0.33504566  0.43055035  0.29764575    -0.88500
O139        O  0.36590087  0.48115617  0.33097760    -0.88600
O140        O  0.40239619  0.47589226  0.31638848    -0.75700
Mg141      Mg  0.30337322  0.40899865  0.38247050     1.58000
O142        O  0.33163403  0.48905019  0.39582440    -0.83000
H143        H  0.27147050  0.33712276  0.33554237    -0.06800
O144        O  0.37101940  0.40329904  0.31608935    -0.88300
H145        H  0.41547411  0.41778175  0.31985991    -0.06600
H146        H  0.29501513  0.41225796  0.28212093    -0.06800
C147        C  0.39297615  0.40683166  0.32698204     0.86800
C148        C  0.28812592  0.35626127  0.34500598     0.87400
C149        C  0.31120201  0.40840612  0.29099041     0.87400
H150        H  0.40987224  0.50887494  0.33833512    -0.06800
O151        O  0.37690166  0.46428141  0.37858141    -0.75800
Mg152      Mg  0.37961026  0.43650929  0.29181229     1.58000
H153        H  0.38829963  0.43370508  0.39018440    -0.06800
C154        C  0.34875973  0.31811542  0.34261477     0.92400
O155        O  0.34733971  0.35462587  0.27854209    -0.83000
C156        C  0.35791038  0.37335172  0.26294740     0.92500
O157        O  0.29434266  0.37456961  0.40848648    -0.83000
Mg158      Mg  0.35035441  0.48540804  0.36263751     1.58200
O159        O  0.35073768  0.33159354  0.32487078    -0.81300
O160        O  0.33476559  0.01616218  0.31459328    -0.83000
C161        C  0.40354998  0.34622881  0.18543968     0.02000
C162        C  0.43221987  0.34788772  0.18527831     0.02000
C163        C  0.44138047  0.33854074  0.16653315    -0.18500
C164        C  0.42251894  0.32819122  0.14792955     0.02000
C165        C  0.39467017  0.32853928  0.14818190     0.02000
C166        C  0.38541095  0.33707726  0.16692805    -0.18500
H167        H  0.36372993  0.33661039  0.16711841     0.04000
H168        H  0.46297489  0.33890390  0.16655675     0.04000
O169        O  0.21885197  0.02565913  0.00518421    -0.88600
C170        C  0.23655909  0.47435371  0.04751172     0.87400
Mg171      Mg  0.19570748  0.00816079  0.97478627     1.58100
O172        O  0.29986918  0.02818075  0.01890589    -0.88300
O173        O  0.26145483  0.06253860  0.01854643    -0.75700
C174        C  0.26962786  0.44986320  0.92813305     0.92500
O175        O  0.17802432  0.45363686  0.01359811    -0.75500
O176        O  0.24290032  0.44608888  0.92947729    -0.83000
Mg177      Mg  0.19614548  0.49776150  0.03379288     1.58000
C178        C  0.35733242  0.99941859  0.99175793     0.92400
O179        O  0.20986145  0.03810222  0.05629910    -0.81300
H180        H  0.32965184  0.07160956  0.01152247    -0.06600
C181        C  0.26114115  0.44590941  0.99294984     0.87300
O182        O  0.24138582  0.03003598  0.95653858    -0.75800
O183        O  0.23826486  0.49801296  0.04055644    -0.88500
O184        O  0.34697283  0.00283121  0.00964863    -0.81300
C185        C  0.32117759  0.01922786  0.07219343     0.92500
C186        C  0.22960080  0.05020923  0.07137748     0.92400
Mg187      Mg  0.29965138  0.99717880  0.96692273     1.58000
O188        O  0.28971365  0.46390553  0.94269971    -0.81300
O189        O  0.31911212  0.04175345  0.98657681    -0.75500
O190        O  0.30124101  0.02754176  0.07065085    -0.81300
O191        O  0.15261790  0.49907265  0.02651837    -0.83100
O192        O  0.19646379  0.47006303  0.92963692    -0.81400
C193        C  0.31691141  0.04811865  0.00610976     0.86800
O194        O  0.25840214  0.99819551  0.95989805    -0.88500
O195        O  0.27962609  0.47351700  0.99433063    -0.88600
O196        O  0.23781769  0.43576265  0.98080602    -0.75700
Mg197      Mg  0.27859567  0.04083086  0.04357767     1.58000
O198        O  0.32571469  0.00532166  0.05673480    -0.83000
H199        H  0.23581087  0.06917354  0.99630279    -0.06800
O200        O  0.19768346  0.46822588  0.98146455    -0.88300
H201        H  0.16887017  0.42437851  0.98842422    -0.06600
H202        H  0.28065483  0.03666056  0.94277207    -0.06800
C203        C  0.18089745  0.44779587  0.99405190     0.86800
C204        C  0.23827892  0.05302812  0.00629584     0.87400
C205        C  0.26098713  0.02202445  0.95251049     0.87400
H206        H  0.26453390  0.43009733  0.00265485    -0.06800
O207        O  0.25679294  0.46733231  0.04311305    -0.75800
Mg208      Mg  0.21959517  0.45698507  0.95631114     1.58000
H209        H  0.21711985  0.45900022  0.05718152    -0.06800
C210        C  0.13778013  0.49416625  0.00894785     0.92400
O211        O  0.16981701  0.48940241  0.94442811    -0.83000
C212        C  0.17522786  0.47662748  0.92867256     0.92500
O213        O  0.25564542  0.05235334  0.07006391    -0.83000
Mg214      Mg  0.30247487  0.49076107  0.02484413     1.58200
O215        O  0.14782635  0.48967833  0.99127779    -0.81300
O216        O  0.34261070  0.99503333  0.97420109    -0.83000
O217        O  0.28185044  0.30574173  0.99447594    -0.88600
C218        C  0.26215330  0.23528879  0.95315899     0.87400
Mg219      Mg  0.30210712  0.30883488  0.02510485     1.58100
O220        O  0.19958179  0.23002985  0.98197013    -0.88300
O221        O  0.24014825  0.30291308  0.98218586    -0.75700
C222        C  0.22695068  0.17276893  0.06987465     0.92500
O223        O  0.32069630  0.27130351  0.98722110    -0.75500
O224        O  0.25339412  0.19593364  0.06829297    -0.83000
Mg225      Mg  0.30395797  0.29823572  0.96727686     1.58000
C226        C  0.13584232  0.14435478  0.00713100     0.92400
O227        O  0.29350939  0.32631219  0.94319365    -0.81300
H228        H  0.17077435  0.24514088  0.98889169    -0.06600
C229        C  0.23538735  0.17984598  0.00542165     0.87300
O230        O  0.25540968  0.28579635  0.04186041    -0.75800
O231        O  0.26130069  0.25760449  0.96052417    -0.88500
O232        O  0.14739635  0.15877250  0.98965539    -0.81300
C233        C  0.17914054  0.20262510  0.92817021     0.92500
C234        C  0.27274370  0.32073328  0.92927697     0.92400
Mg235      Mg  0.19504101  0.19550292  0.03275847     1.58000
O236        O  0.20635298  0.16678624  0.05572580    -0.81300
O237        O  0.17798617  0.22298546  0.01350777    -0.75500
O238        O  0.20151327  0.22955709  0.93034503    -0.81300
O239        O  0.34848466  0.34139051  0.97537614    -0.83100
O240        O  0.29804674  0.26568249  0.07001978    -0.81400
C241        C  0.18221930  0.23314375  0.99435333     0.86800
O242        O  0.23719219  0.23642488  0.03974865    -0.88500
O243        O  0.21671519  0.18879252  0.00498074    -0.88600
O244        O  0.25913722  0.19290599  0.01716337    -0.75700
Mg245      Mg  0.22230366  0.26394382  0.95750233     1.58000
O246        O  0.17128583  0.18335835  0.94333611    -0.83000
H247        H  0.26864213  0.33540212  0.00341403    -0.06800
O248        O  0.29932773  0.26552964  0.01870427    -0.88300
H249        H  0.32845398  0.25060560  0.01251005    -0.06600
H250        H  0.21540677  0.25449972  0.05543877    -0.06800
C251        C  0.31682813  0.26221475  0.00661635     0.86800
C252        C  0.26416510  0.31584614  0.99359672     0.87400
C253        C  0.23525857  0.25852708  0.04627938     0.87400
H254        H  0.23188612  0.16106005  0.99508974    -0.06800
O255        O  0.24116662  0.20813613  0.95704726    -0.75800
Mg256      Mg  0.27677063  0.23114471  0.04266374     1.58000
H257        H  0.28151209  0.23894484  0.94353683    -0.06800
C258        C  0.36232279  0.35092862  0.99339896     0.92400
O259        O  0.32413253  0.31290896  0.05743326    -0.83000
C260        C  0.31764351  0.29373485  0.07256547     0.92500
O261        O  0.24588116  0.29840473  0.93143904    -0.83000
Mg262      Mg  0.19503769  0.18625695  0.97483708     1.58200
O263        O  0.34998452  0.33778265  0.01109051    -0.81300
O264        O  0.15067193  0.15234570  0.02482446    -0.83000
O265        O  0.02121249  0.21587492  0.99257568    -0.88600
C266        C  0.47249015  0.23440561  0.95250246     0.87400
Mg267      Mg  0.00586805  0.19559856  0.02409017     1.58100
O268        O  0.02982947  0.29803974  0.97900104    -0.88300
O269        O  0.05951266  0.25517487  0.97740191    -0.75700
C270        C  0.45529963  0.28016074  0.07271549     0.92500
O271        O  0.45213906  0.18039095  0.98865467    -0.75500
O272        O  0.44947452  0.25244368  0.07233481    -0.83000
Mg273      Mg  0.49411796  0.19382560  0.96695311     1.58000
C274        C  0.01121383  0.36348547  0.00673918     0.92400
O275        O  0.02622661  0.20105210  0.94001423    -0.81300
H276        H  0.07436334  0.32477360  0.98513121    -0.06600
C277        C  0.44853698  0.26586091  0.00800127     0.87300
O278        O  0.03245929  0.24233114  0.04098689    -0.75800
O279        O  0.49657689  0.23598125  0.95836407    -0.88500
O280        O  0.01234340  0.35093934  0.98918675    -0.81300
C281        C  0.01877565  0.31965334  0.92644371     0.92500
C282        C  0.04224488  0.22054216  0.92557842     0.92400
Mg283      Mg  0.00559289  0.30515323  0.03302888     1.58000
O284        O  0.47115999  0.29902271  0.05793572    -0.81300
O285        O  0.04698250  0.31867393  0.01082530    -0.75500
O286        O  0.02621067  0.29893720  0.92716475    -0.81300
O287        O  0.49261543  0.14969578  0.97574910    -0.83100
O288        O  0.47047057  0.20073262  0.07271901    -0.81400
C289        C  0.05128771  0.31436219  0.99119907     0.86800
O290        O  0.00290531  0.26241484  0.04105165    -0.88500
O291        O  0.47628161  0.28249027  0.00559172    -0.88600
O292        O  0.43788256  0.24375574  0.02116832    -0.75700
Mg293      Mg  0.03855122  0.27416300  0.95337190     1.58000
O294        O  0.00640445  0.32500838  0.94246165    -0.83000
H295        H  0.06452884  0.22831242  0.99942444    -0.06800
O296        O  0.46797887  0.20106360  0.02065097    -0.88300
H297        H  0.42371868  0.17422540  0.01369583    -0.06600
H298        H  0.04391964  0.28289380  0.05527843    -0.06800
C299        C  0.44703131  0.18471059  0.00810187     0.86800
C300        C  0.04893866  0.23259575  0.99014962     0.87400
C301        C  0.02687458  0.26330682  0.04637648     0.87400
H302        H  0.43300436  0.26983661  0.99839438    -0.06800
O303        O  0.46609454  0.25494141  0.95745606    -0.75800
Mg304      Mg  0.45862120  0.22537070  0.04588062     1.58000
H305        H  0.45596872  0.21449633  0.94360165    -0.06800
C306        C  0.48810408  0.13590143  0.99366248     0.92400
O307        O  0.49042301  0.17468887  0.05753608    -0.83000
C308        C  0.47761910  0.17977754  0.07339969     0.92500
O309        O  0.04750464  0.24801657  0.92646123    -0.83000
Mg310      Mg  0.49196935  0.30196855  0.97383255     1.58200
O311        O  0.48685682  0.14824311  0.01133001    -0.81300
O312        O  0.00700847  0.34988583  0.02476451    -0.83000
O313        O  0.13704017  0.02246380  0.67082713    -0.88600
C314        C  0.19300556  0.09570928  0.70832302     0.87400
Mg315      Mg  0.15167351  0.01687941  0.63944909     1.58100
O316        O  0.13204398  0.09968801  0.68408555    -0.88300
O317        O  0.10032042  0.02720422  0.68540312    -0.75700
C318        C  0.20113625  0.14795890  0.58902600     0.92500
O319        O  0.21035046  0.05782124  0.67365568    -0.75500
O320        O  0.20565949  0.12538671  0.58980438    -0.83000
Mg321      Mg  0.16938707  0.03177935  0.69658241     1.58000
C322        C  0.15058118  0.18294875  0.65600681     0.92400
O323        O  0.13361493  0.00521285  0.72307952    -0.81300
H324        H  0.08729026  0.08385263  0.68070721    -0.06600
C325        C  0.21324621  0.14721386  0.65267818     0.87300
O326        O  0.12428398  0.03650436  0.62302917    -0.75800
O327        O  0.16854121  0.07293319  0.70328882    -0.88500
O328        O  0.15177409  0.17140532  0.67402631    -0.81300
C329        C  0.14764351  0.13172180  0.73689301     0.92500
C330        C  0.11910374  0.01104013  0.73741977     0.92400
Mg331      Mg  0.15259356  0.12740371  0.63053137     1.58000
O332        O  0.18782165  0.15370780  0.60425824    -0.81300
O333        O  0.11201448  0.10210508  0.65346875    -0.75500
O334        O  0.14133453  0.10408399  0.73521547    -0.81300
O335        O  0.17338083  0.48958855  0.68894336    -0.83100
O336        O  0.18203628  0.05495250  0.59093600    -0.81400
C337        C  0.10959301  0.09500960  0.67328175     0.86800
O338        O  0.15375321  0.08620706  0.62347584    -0.88500
O339        O  0.18581071  0.13736570  0.65583629    -0.88600
O340        O  0.22236132  0.13365396  0.64001698    -0.75700
Mg341      Mg  0.12406515  0.06744368  0.70910949     1.58000
O342        O  0.15764805  0.14985189  0.72090382    -0.83000
H343        H  0.09308813  0.99360796  0.66408852    -0.06800
O344        O  0.19143210  0.06128388  0.64274333    -0.88300
H345        H  0.23618996  0.07793851  0.64711133    -0.06600
H346        H  0.11236486  0.06577648  0.60975458    -0.06800
C347        C  0.21356382  0.06608588  0.65401682     0.86800
C348        C  0.10957314  0.01331817  0.67317786     0.87400
C349        C  0.12961267  0.06316282  0.61823475     0.87400
H350        H  0.22986138  0.16735845  0.66131960    -0.06800
O351        O  0.19892633  0.12249057  0.70338444    -0.75800
Mg352      Mg  0.19856075  0.09257895  0.61693417     1.58000
H353        H  0.21011987  0.09270767  0.71664831    -0.06800
C354        C  0.17709464  0.48015060  0.67072092     0.92400
O355        O  0.16781976  0.01058839  0.60665337    -0.83000
C356        C  0.17752886  0.02779728  0.59022345     0.92500
O357        O  0.11518876  0.03387559  0.73575294    -0.83000
Mg358      Mg  0.17263983  0.14360323  0.68754379     1.58200
O359        O  0.17512571  0.99199335  0.65342236    -0.81300
O360        O  0.15224690  0.17127446  0.63817539    -0.83000
C361        C  0.07965386  0.17781404  0.84986425     0.02000
C362        C  0.10847259  0.17975710  0.85002037     0.02000
C363        C  0.11950734  0.17282783  0.83144855    -0.18500
C364        C  0.10193290  0.16261418  0.81267549     0.02000
C365        C  0.07208013  0.15854373  0.81246988     0.02000
C366        C  0.06157436  0.16697464  0.83100844    -0.18500
H367        H  0.03936532  0.16527735  0.83068073     0.04000
H368        H  0.14178445  0.17459495  0.83181694     0.04000
C369        C  0.09202706  0.43291117  0.85538920     0.02000
C370        C  0.06306595  0.40567274  0.85486221     0.02000
C371        C  0.04521830  0.39841358  0.83591263    -0.18500
C372        C  0.05602112  0.41697439  0.81749923     0.02000
C373        C  0.08514306  0.44344455  0.81791601     0.02000
C374        C  0.10256538  0.45132100  0.83686327    -0.18500
H375        H  0.12460364  0.47210789  0.83721177     0.04000
H376        H  0.02317177  0.37767643  0.83524113     0.04000
O377        O  0.46959807  0.11622973  0.67323424    -0.88600
C378        C  0.40165195  0.09384989  0.71708457     0.87400
Mg379      Mg  0.47173137  0.13820934  0.64305284     1.58100
O380        O  0.39780195  0.03248543  0.68683337    -0.88300
O381        O  0.47046436  0.07640907  0.68578740    -0.75700
C382        C  0.33428359  0.05839109  0.59944774     0.92500
O383        O  0.43350731  0.15194014  0.68261836    -0.75500
O384        O  0.35680550  0.08556831  0.59954843    -0.83000
Mg385      Mg  0.46340118  0.13729436  0.70150188     1.58000
C386        C  0.31110824  0.46862934  0.66146159     0.92400
O387        O  0.49407537  0.12802044  0.72404053    -0.81300
H388        H  0.41532924  0.00656872  0.67739418    -0.06600
C389        C  0.34483210  0.06703257  0.66360266     0.87300
O390        O  0.45075128  0.09250346  0.62479567    -0.75800
O391        O  0.42418243  0.09382061  0.70946160    -0.88500
O392        O  0.32436649  0.47971007  0.67947969    -0.81300
C393        C  0.37065078  0.00868210  0.74028643     0.92500
C394        C  0.49136784  0.10837887  0.73805784     0.92400
Mg395      Mg  0.36205764  0.02939455  0.63549026     1.58000
O396        O  0.33095541  0.03926699  0.61407072    -0.81300
O397        O  0.39191318  0.01427015  0.65392640    -0.75500
O398        O  0.39822368  0.03021958  0.73861238    -0.81300
O399        O  0.00706387  0.18218350  0.69124868    -0.83100
O400        O  0.42779980  0.13565914  0.59788943    -0.81400
C401        C  0.40208381  0.01720458  0.67310404     0.86800
O402        O  0.40133803  0.07251479  0.62759910    -0.88500
O403        O  0.35579788  0.05001861  0.66404093    -0.88600
O404        O  0.35557277  0.09016976  0.65130836    -0.75700
Mg405      Mg  0.43259506  0.05580221  0.71138188     1.58000
O406        O  0.35120663  0.00295115  0.72532748    -0.83000
H407        H  0.50025379  0.10488453  0.66333667    -0.06800
O408        O  0.42772080  0.13349096  0.64980066    -0.88300
H409        H  0.41006487  0.15936751  0.65903008    -0.06600
H410        H  0.42013299  0.05274149  0.61027235    -0.06800
C411        C  0.42337143  0.14883666  0.66342533     0.86800
C412        C  0.48112278  0.09973568  0.67373243     0.87400
C413        C  0.42369723  0.07186379  0.62024704     0.87400
H414        H  0.32601757  0.06242608  0.67417326    -0.06800
O415        O  0.37472341  0.07272154  0.71273469    -0.75800
Mg416      Mg  0.39320587  0.11057295  0.62539043     1.58000
H417        H  0.40491360  0.11269475  0.72725385    -0.06800
C418        C  0.01530985  0.19595750  0.67321641     0.92400
O419        O  0.47468192  0.16164736  0.61139137    -0.83000
C420        C  0.45580081  0.15632767  0.59617078     0.92500
O421        O  0.46909490  0.08098251  0.73748456    -0.83000
Mg422      Mg  0.35351937  0.02725061  0.69398618     1.58200
O423        O  0.49839655  0.18602168  0.65796250    -0.81300
O424        O  0.32107594  0.48358188  0.64402319    -0.83000
O425        O  0.35566849  0.30475854  0.66028969    -0.88600
C426        C  0.42433930  0.35683860  0.61804531     0.87400
Mg427      Mg  0.35094177  0.32221500  0.69075772     1.58100
O428        O  0.43219559  0.30035942  0.64588250    -0.88300
O429        O  0.35960049  0.26695427  0.64672532    -0.75700
C430        C  0.48667571  0.38342795  0.73611315     0.92500
O431        O  0.38750890  0.37750656  0.65253036    -0.75500
O432        O  0.46308534  0.38618892  0.73516121    -0.83000
Mg433      Mg  0.36137809  0.33308147  0.63275839     1.58000
C434        C  0.02118779  0.33138398  0.67283797     0.92400
O435        O  0.33343376  0.29298864  0.60999772    -0.81300
H436        H  0.41801780  0.25670612  0.65298629    -0.06600
C437        C  0.47922115  0.38644421  0.67129426     0.87300
O438        O  0.37456000  0.29964918  0.70850527    -0.75800
O439        O  0.40290937  0.33310238  0.62537014    -0.88500
O440        O  0.50340915  0.32207863  0.65391936    -0.81300
C441        C  0.46067385  0.30920673  0.59225379     0.92500
C442        C  0.33945238  0.27966039  0.59493300     0.92400
Mg443      Mg  0.46545386  0.33087554  0.69757993     1.58000
O444        O  0.49339946  0.37077690  0.72089921    -0.81300
O445        O  0.43904178  0.28641930  0.67778506    -0.75500
O446        O  0.43279478  0.30187441  0.59423830    -0.81300
O447        O  0.31692353  0.33168917  0.64035427    -0.83100
O448        O  0.39290105  0.36263722  0.73666387    -0.81400
C449        C  0.42941342  0.28020309  0.65844518     0.86800
O450        O  0.42358710  0.33069571  0.70533579    -0.88500
O451        O  0.47050461  0.35890323  0.67009929    -0.88600
O452        O  0.46630360  0.39651799  0.68374904    -0.75700
Mg453      Mg  0.39801754  0.28836724  0.62152766     1.58000
O454        O  0.47972549  0.32220414  0.60751370    -0.83000
H455        H  0.32796228  0.26144908  0.66912870    -0.06800
O456        O  0.39359802  0.36347866  0.68462206    -0.88300
H457        H  0.40784030  0.40712880  0.67747531    -0.06600
H458        H  0.40658050  0.29179712  0.72203221    -0.06800
C459        C  0.39659958  0.38364967  0.67198722     0.86800
C460        C  0.34671867  0.27716608  0.65908345     0.87400
C461        C  0.40200561  0.30696411  0.71250493     0.87400
H462        H  0.49782909  0.40224509  0.66117842    -0.06800
O463        O  0.45186845  0.36438873  0.62194572    -0.75800
Mg464      Mg  0.42799647  0.37533780  0.70909372     1.58000
H465        H  0.41954163  0.37186479  0.60853629    -0.06800
C466        C  0.30637008  0.33549809  0.65798552     0.92400
O467        O  0.34632925  0.34160266  0.72267078    -0.83000
C468        C  0.36488519  0.35523364  0.73810690     0.92500
O469        O  0.36309002  0.27698930  0.59539241    -0.83000
Mg470      Mg  0.47492967  0.34124141  0.63952541     1.58200
O471        O  0.32039982  0.33915757  0.67584050    -0.81300
O472        O  0.01296542  0.33792631  0.69055143    -0.83000
C473        C  0.31060812  0.39035869  0.85036236     0.02000
C474        C  0.30900720  0.41737477  0.84992627     0.02000
C475        C  0.31823412  0.43555028  0.83143504    -0.18500
C476        C  0.32872842  0.42699700  0.81321571     0.02000
C477        C  0.33025282  0.39973780  0.81359442     0.02000
C478        C  0.32097699  0.38161075  0.83223671    -0.18500
H479        H  0.32175099  0.36055968  0.83263573     0.04000
H480        H  0.31741627  0.45658931  0.83126731     0.04000
C481        C  0.00330857  0.23590543  0.48110156     0.02000
C482        C  0.00768175  0.26582879  0.48146705     0.02000
C483        C  0.00191312  0.27705806  0.50056652    -0.18500
C484        C  0.49354542  0.26112108  0.51855993     0.02000
C485        C  0.48918598  0.23119809  0.51883062     0.02000
C486        C  0.99293110  0.21789390  0.49972602    -0.18500
H487        H  0.99024559  0.19521363  0.49953021     0.04000
H488        H  0.00483202  0.29983498  0.50079325     0.04000
C489        C  0.23169771  0.24430663  0.48005958     0.02000
C490        C  0.26012389  0.27133880  0.48196928     0.02000
C491        C  0.27818604  0.27643588  0.50036805    -0.18500
C492        C  0.26826391  0.25465592  0.51690779     0.02000
C493        C  0.23990712  0.22724635  0.51476805     0.02000
C494        C  0.22169351  0.22256687  0.49652309    -0.18500
H495        H  0.19986155  0.20170771  0.49496123     0.04000
H496        H  0.29989708  0.29744493  0.50183356     0.04000
C497        C  0.23589881  0.48360370  0.48248015     0.02000
C498        C  0.26704725  0.49292153  0.48548871     0.02000
C499        C  0.28075928  0.50492931  0.50557716    -0.18500
C500        C  0.26434561  0.01216779  0.52078044     0.02000
C501        C  0.23325624  0.00269220  0.51740000     0.02000
C502        C  0.21946401  0.48765951  0.49917984    -0.18500
H503        H  0.19585962  0.48144664  0.49652078     0.04000
H504        H  0.30443957  0.51138426  0.50816000     0.04000
C505        C  0.00151922  0.47313042  0.00151311     0.02000
C506        C  0.02780259  0.50234561  0.00281522     0.02000
C507        C  0.02442826  0.02809581  0.99935680     0.02000
C508        C  0.99544726  0.02531842  0.99604969     0.02000
C509        C  0.46948196  0.49638793  0.99624877     0.02000
C510        C  0.47192252  0.46973044  0.99766580     0.02000
C511        C  0.36269706  0.16776759  0.34022948     0.02000
C512        C  0.33389753  0.14081837  0.34210395     0.02000
C513        C  0.30709806  0.14271751  0.34448765     0.02000
C514        C  0.30921703  0.17163679  0.34540903     0.02000
C515        C  0.33810493  0.19859426  0.34423904     0.02000
C516        C  0.36482738  0.19669591  0.34124246     0.02000
C517        C  0.18871677  0.32844655  0.65885030     0.02000
C518        C  0.19204365  0.35788155  0.66045097     0.02000
C519        C  0.16609860  0.36091828  0.66399072     0.02000
C520        C  0.13703339  0.33460347  0.66635711     0.02000
C521        C  0.13382051  0.30525685  0.66499031     0.02000
C522        C  0.15966712  0.30209465  0.66132367     0.02000
C523        C  0.06895920  0.33755086  0.68998344    -0.26600
C524        C  0.05107654  0.33240312  0.67130450    -0.14700
C525        C  0.06309498  0.33037313  0.65108683     0.36000
C526        C  0.09161282  0.33242486  0.65009189    -0.26000
C527        C  0.10912531  0.33707571  0.66866755    -0.15300
C528        C  0.09777198  0.33981392  0.68894610     0.37100
N529        N  0.11453737  0.34457054  0.70872699    -0.89500
H530        H  0.06050948  0.33971061  0.70558695     0.18200
H531        H  0.09988026  0.32967010  0.63459076     0.18200
N532        N  0.04676608  0.32658722  0.63133019    -0.88500
H533        H  0.10175518  0.32565901  0.71861319     0.35500
H534        H  0.13538674  0.34558784  0.70605671     0.40600
H535        H  0.04340983  0.30662360  0.62372198     0.40300
H536        H  0.06042006  0.34506709  0.62131301     0.35100
C537        C  0.22959036  0.32404830  0.67662883    -0.26600
C538        C  0.21658159  0.32588810  0.65725019    -0.14700
C539        C  0.23267705  0.33018069  0.63769120     0.36000
C540        C  0.26215025  0.33395894  0.63831522    -0.26000
C541        C  0.27594190  0.33351837  0.65799797    -0.15300
C542        C  0.25897817  0.32810776  0.67726230     0.37100
N543        N  0.27140247  0.32703719  0.69774614    -0.89500
H544        H  0.21736489  0.32095566  0.69164793     0.18200
H545        H  0.27430705  0.33730895  0.62325309     0.18200
N546        N  0.22004972  0.33109056  0.61707453    -0.88500
H547        H  0.25715542  0.30560301  0.70454818     0.35500
H548        H  0.27054682  0.34345503  0.70756271     0.40600
H549        H  0.19782644  0.32712571  0.61864049     0.40300
H550        H  0.21839528  0.31300560  0.60777671     0.35100
C551        C  0.32157840  0.38045149  0.77583253    -0.26600
C552        C  0.33965997  0.38868360  0.79444082    -0.14700
C553        C  0.36534372  0.38473172  0.79498997     0.36000
C554        C  0.37254218  0.37284699  0.77670779    -0.26000
C555        C  0.35448275  0.36462858  0.75784169    -0.15300
C556        C  0.32857161  0.36859886  0.75770796     0.37100
N557        N  0.30893919  0.36123856  0.73938245    -0.89500
H558        H  0.30153506  0.38295680  0.77543977     0.18200
H559        H  0.39256022  0.37028963  0.77716229     0.18200
N560        N  0.38410519  0.39302261  0.81405753    -0.88500
H561        H  0.29920692  0.33786685  0.73629281     0.35500
H562        H  0.32181071  0.37389887  0.72614011     0.40600
H563        H  0.39394973  0.41661965  0.81622523     0.40300
H564        H  0.40209431  0.38868934  0.81189819     0.35100
C565        C  0.27391518  0.26072691  0.55675460    -0.26600
C566        C  0.28703741  0.26112759  0.53672076    -0.14700
C567        C  0.31714523  0.26637616  0.53593668     0.36000
C568        C  0.33325581  0.27059738  0.55533541    -0.26000
C569        C  0.31993110  0.26987428  0.57543234    -0.15300
C570        C  0.28974832  0.26436927  0.57604964     0.37100
N571        N  0.27497120  0.26229475  0.59622546    -0.89500
H572        H  0.25104696  0.25736905  0.55745001     0.18200
H573        H  0.35669307  0.27552817  0.55468432     0.18200
N574        N  0.33136684  0.26785040  0.51551808    -0.88500
H575        H  0.25522685  0.24082557  0.59695949     0.35500
H576        H  0.26837005  0.27887782  0.59641547     0.40600
H577        H  0.31940883  0.24634293  0.50820901     0.40300
H578        H  0.35372754  0.27235648  0.51780673     0.35100
C579        C  0.44722320  0.27535889  0.56004812    -0.26600
C580        C  0.47000292  0.29962803  0.57227209    -0.14700
C581        C  0.50094257  0.31188665  0.56625621     0.36000
C582        C  0.50827748  0.29895279  0.54867947    -0.26000
C583        C  0.48539609  0.27403938  0.53717335    -0.15300
C584        C  0.45468913  0.26256807  0.54267416     0.37100
N585        N  0.43098382  0.23798333  0.53049514    -0.89500
H586        H  0.42337626  0.26553310  0.56431385     0.18200
H587        H  0.03160127  0.30028017  0.54759905     0.18200
N588        N  0.02673580  0.32994054  0.58208817    -0.88500
H589        H  0.41665255  0.24546924  0.52423882     0.35500
H590        H  0.41819362  0.21998392  0.54109541     0.40600
H591        H  0.02764659  0.35089801  0.57998383     0.40300
H592        H  0.04762835  0.33288083  0.57671660     0.35100
C593        C  0.26438918  0.42965033  0.64182671    -0.26600
C594        C  0.28204823  0.43857607  0.66089562    -0.14700
C595        C  0.27009591  0.42001064  0.67941959     0.36000
C596        C  0.24082631  0.39407886  0.67872618    -0.26000
C597        C  0.22315917  0.38558863  0.65979834    -0.15300
C598        C  0.23542960  0.40333773  0.64093395     0.37100
N599        N  0.21922654  0.39574521  0.62070695    -0.89500
H600        H  0.27287807  0.44346402  0.62740105     0.18200
H601        H  0.23171337  0.38044551  0.69317914     0.18200
N602        N  0.28738820  0.42732858  0.69906514    -0.88500
H603        H  0.23251337  0.39236643  0.60931462     0.35500
H604        H  0.19877036  0.37509437  0.62163185     0.40600
H605        H  0.27474522  0.43013930  0.71129908     0.40300
H606        H  0.29009576  0.40874510  0.70312156     0.35100
C607        C  0.05690995  0.23611788  0.65094472    -0.26600
C608        C  0.04402770  0.22596812  0.67155361    -0.14700
C609        C  0.06054307  0.24295263  0.68986382     0.36000
C610        C  0.08974727  0.26853788  0.68729057    -0.26000
C611        C  0.10289574  0.27775456  0.66676233    -0.15300
C612        C  0.08591360  0.26170656  0.64829173     0.37100
N613        N  0.09732173  0.27037425  0.62665155    -0.89500
H614        H  0.04477567  0.22358302  0.63659232     0.18200
H615        H  0.10237924  0.28118893  0.70145833     0.18200
N616        N  0.04792703  0.23437365  0.71109463    -0.88500
H617        H  0.08270173  0.27600686  0.61849650     0.35500
H618        H  0.11888005  0.28989701  0.62640909     0.40600
H619        H  0.06275256  0.23026899  0.72041197     0.40300
H620        H  0.04708210  0.25288074  0.71794698     0.35100
C621        C  0.37016596  0.46411927  0.78957952    -0.26600
C622        C  0.33904019  0.44778109  0.79445959    -0.14700
C623        C  0.31835819  0.45293742  0.78248491     0.36000
C624        C  0.32928374  0.47422377  0.76556926    -0.26000
C625        C  0.36055801  0.49079665  0.76055498    -0.15300
C626        C  0.38120025  0.48556308  0.77292159     0.37100
N627        N  0.41289666  0.99446755  0.76474273    -0.89500
H628        H  0.38609368  0.46038580  0.79898114     0.18200
H629        H  0.31323134  0.47777079  0.75618453     0.18200
N630        N  0.28637615  0.43656863  0.78761926    -0.88500
H631        H  0.42246032  0.52432740  0.77112794     0.35500
H632        H  0.41383636  0.98934879  0.74847666     0.40600
H633        H  0.27823953  0.41338379  0.78466285     0.40300
H634        H  0.27423182  0.44309021  0.77734873     0.35100
C635        C  0.28785463  0.05309821  0.54910990    -0.26600
C636        C  0.27920136  0.02340151  0.54209267    -0.14700
C637        C  0.28614826  0.00474394  0.55489425     0.36000
C638        C  0.30275955  0.01651714  0.57406575    -0.26000
C639        C  0.31307133  0.04680874  0.58068246    -0.15300
C640        C  0.30488511  0.06508097  0.56818351     0.37100
N641        N  0.31320361  0.09557497  0.57447285    -0.89500
H642        H  0.28220705  0.06735093  0.53934936     0.18200
H643        H  0.30886162  0.00224576  0.58340382     0.18200
N644        N  0.25876873  0.46980042  0.55826237    -0.88500
H645        H  0.33695338  0.10913866  0.57428279     0.35500
H646        H  0.30541640  0.09501845  0.59020056     0.40600
H647        H  0.23604905  0.46446308  0.55757954     0.40300
H648        H  0.26071079  0.45886415  0.57197996     0.35100
C649        C  0.49913650  0.22294467  0.55702616    -0.26600
C650        C  0.48032991  0.21226424  0.53871123    -0.14700
C651        C  0.45429531  0.18294175  0.53907180     0.36000
C652        C  0.44731917  0.16491253  0.55769539    -0.26000
C653        C  0.46595878  0.17545921  0.57623976    -0.15300
C654        C  0.49238315  0.20508993  0.57567630     0.37100
N655        N  0.51251519  0.21819345  0.59379904    -0.89500
H656        H  0.51946975  0.24532937  0.55677128     0.18200
H657        H  0.42695437  0.14255844  0.55763173     0.18200
N658        N  0.43454579  0.17160287  0.52061870    -0.88500
H659        H  0.52216073  0.20466522  0.59749272     0.35500
H660        H  0.50003321  0.21898806  0.60698686     0.40600
H661        H  0.41270235  0.16654987  0.52540467     0.40300
H662        H  0.43337274  0.15125058  0.51563727     0.35100
C663        C  0.01750746  0.41952949  0.79384245    -0.26600
C664        C  0.03740220  0.40821718  0.79742071    -0.14700
C665        C  0.04217673  0.39188673  0.78089778     0.36000
C666        C  0.02720128  0.38748541  0.76095823    -0.26000
C667        C  0.00719317  0.39879946  0.75713268    -0.15300
C668        C  0.00269927  0.41546279  0.77380548     0.37100
N669        N  0.98327617  0.42828947  0.77041147    -0.89500
H670        H  0.01430427  0.43243869  0.80656740     0.18200
H671        H  0.03052249  0.37423602  0.74857367     0.18200
N672        N  0.06146267  0.37898734  0.78467400    -0.88500
H673        H  0.99346270  0.44508515  0.75854252     0.35500
H674        H  0.98211576  0.43937263  0.78437550     0.40600
H675        H  0.08370339  0.39692425  0.78696151     0.40300
H676        H  0.06199098  0.36696191  0.77105126     0.35100
C677        C  0.06146934  0.15902341  0.77295687    -0.26600
C678        C  0.05166206  0.14516872  0.79322702    -0.14700
C679        C  0.02288350  0.11833297  0.79484239     0.36000
C680        C  0.50412377  0.10409135  0.77656434    -0.26000
C681        C  0.01445272  0.11998748  0.75587733    -0.15300
C682        C  0.04360336  0.14650474  0.75425184     0.37100
N683        N  0.05494091  0.16083923  0.73366733    -0.89500
H684        H  0.08310690  0.18002372  0.77173295     0.18200
H685        H  0.48188451  0.08375615  0.77791655     0.18200
N686        N  0.51184118  0.10098588  0.81570379    -0.88500
H687        H  0.07657597  0.18019321  0.73532003     0.35500
H688        H  0.05768825  0.14540834  0.72396518     0.40600
H689        H  0.02633348  0.09628439  0.82097837     0.40300
H690        H  0.49033915  0.08146250  0.81403501     0.35100
C691        C  0.14766596  0.22388416  0.67667373    -0.26600
C692        C  0.14960630  0.21206751  0.65642516    -0.14700
C693        C  0.15408229  0.23021042  0.63778434     0.36000
C694        C  0.15698203  0.25913375  0.63994777    -0.26000
C695        C  0.15619559  0.27109089  0.66023081    -0.15300
C696        C  0.15149655  0.25320225  0.67888678     0.37100
N697        N  0.15104062  0.26408488  0.70033008    -0.89500
H698        H  0.14430515  0.21074141  0.69124061     0.18200
H699        H  0.16027197  0.27263069  0.62559102     0.18200
N700        N  0.15648131  0.22050162  0.61646803    -0.88500
H701        H  0.16903404  0.26459722  0.70901312     0.35500
H702        H  0.15525329  0.28650295  0.70024429     0.40600
H703        H  0.13660217  0.19992952  0.61294853     0.40300
H704        H  0.17542477  0.21743729  0.61583044     0.35100
C705        C  0.17999025  0.40824736  0.68470767    -0.26600
C706        C  0.16954857  0.39179205  0.66527624    -0.14700
C707        C  0.16356778  0.40529992  0.64736404     0.36000
C708        C  0.16789521  0.43471384  0.64946634    -0.26000
C709        C  0.17745928  0.45103262  0.66907678    -0.15300
C710        C  0.18403534  0.43777496  0.68683513     0.37100
N711        N  0.19477759  0.45422400  0.70687805    -0.89500
H712        H  0.18497575  0.39791771  0.69826637     0.18200
H713        H  0.16256880  0.44439756  0.63567641     0.18200
N714        N  0.15324817  0.39015422  0.62680303    -0.88500
H715        H  0.19825341  0.44107197  0.71831579     0.35500
H716        H  0.21612800  0.47338823  0.70395384     0.40600
H717        H  0.15060179  0.36833976  0.62689375     0.40300
H718        H  0.13166072  0.38737387  0.62378678     0.35100
C719        C  0.08297647  0.47922203  0.79160193    -0.26600
C720        C  0.09726521  0.46312107  0.79852237    -0.14700
C721        C  0.12049915  0.46338393  0.78580044     0.36000
C722        C  0.12801689  0.47875949  0.76586696    -0.26000
C723        C  0.11305948  0.49422779  0.75856829    -0.15300
C724        C  0.08739865  0.99334752  0.77173553     0.37100
N725        N  0.07209914  0.00990228  0.76612518    -0.89500
H726        H  0.06545915  0.47928040  0.80161782     0.18200
H727        H  0.14608058  0.47918417  0.75621587     0.18200
N728        N  0.13594431  0.44760533  0.79296448    -0.88500
H729        H  0.05766378  0.00882077  0.77859790     0.35500
H730        H  0.05808097  0.99886625  0.75280793     0.40600
H731        H  0.14858206  0.45886452  0.80674739     0.40300
H732        H  0.15167468  0.44913105  0.78138264     0.35100
C733        C  0.12231354  0.11867652  0.77281162    -0.26600
C734        C  0.14008378  0.14140838  0.75761365    -0.14700
C735        C  0.14684346  0.17172506  0.76157724     0.36000
C736        C  0.13471438  0.17829810  0.77989675    -0.26000
C737        C  0.11518545  0.15501668  0.79399108    -0.15300
C738        C  0.10979718  0.12515081  0.79074911     0.37100
N739        N  0.09150241  0.10091285  0.80535409    -0.89500
H740        H  0.11693317  0.09525460  0.77038959     0.18200
H741        H  0.13979084  0.20154396  0.78278607     0.18200
N742        N  0.16555512  0.19581917  0.74698664    -0.88500
H743        H  0.06967922  0.09824647  0.80570225     0.35500
H744        H  0.10105901  0.10719840  0.82080750     0.40600
H745        H  0.18421862  0.21258738  0.75565145     0.40300
H746        H  0.15282780  0.20551596  0.74131908     0.35100
C747        C  0.19635645  0.03732801  0.55222166    -0.26600
C748        C  0.18643222  0.01756901  0.57015261    -0.14700
C749        C  0.18932991  0.99098431  0.56921313     0.36000
C750        C  0.20329778  0.98601013  0.55133480    -0.26000
C751        C  0.21497640  0.00696069  0.53432797    -0.15300
C752        C  0.21077709  0.03259375  0.53451409     0.37100
N753        N  0.22149196  0.05474759  0.51740426    -0.89500
H754        H  0.19419453  0.05760725  0.55226522     0.18200
H755        H  0.19060925  0.46047526  0.54595320     0.18200
N756        N  0.16262295  0.46453172  0.58020229    -0.88500
H757        H  0.23829773  0.07557282  0.52388189     0.35500
H758        H  0.23181632  0.04915325  0.50501028     0.40600
H759        H  0.14143378  0.46328579  0.58156292     0.40300
H760        H  0.17281526  0.46816333  0.59543244     0.35100
C761        C  0.23402531  0.16950917  0.55644527    -0.26600
C762        C  0.21030360  0.16738105  0.56945862    -0.14700
C763        C  0.19443820  0.18252654  0.56293765     0.36000
C764        C  0.20377252  0.20066854  0.54434052    -0.26000
C765        C  0.22834281  0.20388496  0.53198688    -0.15300
C766        C  0.24312572  0.18739404  0.53773086     0.37100
N767        N  0.26695492  0.18780551  0.52485226    -0.89500
H768        H  0.24573672  0.15728422  0.56087685     0.18200
H769        H  0.19241376  0.21319426  0.53976935     0.18200
N770        N  0.16871363  0.17925644  0.57503413    -0.88500
H771        H  0.28717547  0.19872674  0.53384243     0.35500
H772        H  0.27044282  0.20009203  0.51060884     0.40600
H773        H  0.15132294  0.15647650  0.57363875     0.40300
H774        H  0.16018468  0.19246007  0.56831822     0.35100
C775        C  0.98957663  0.06422446  0.97526132    -0.26600
C776        C  0.49286305  0.05318395  0.99776464    -0.14700
C777        C  0.49175442  0.06832121  0.01670320     0.36000
C778        C  0.48874408  0.09430168  0.01483876    -0.26000
C779        C  0.48671834  0.10575887  0.99455594    -0.15300
C780        C  0.98599664  0.08999189  0.97363836     0.37100
N781        N  0.98442675  0.10104780  0.95267282    -0.89500
H782        H  0.99062014  0.05294757  0.96062715     0.18200
H783        H  0.48887821  0.10607920  0.02953959     0.18200
N784        N  0.49407740  0.05842547  0.03803612    -0.88500
H785        H  0.96604630  0.08341119  0.94432471     0.35500
H786        H  0.00443835  0.10628675  0.94435571     0.40600
H787        H  0.49635266  0.03903885  0.03766513     0.40300
H788        H  0.47360519  0.05218992  0.04605428     0.35100
C789        C  0.51066096  0.40706871  0.02297190    -0.26600
C790        C  0.01233547  0.39357874  0.00568385    -0.14700
C791        C  0.01414182  0.40798167  0.98567370     0.36000
C792        C  0.00979165  0.43324038  0.98489468    -0.26000
C793        C  0.00473040  0.44546858  0.00367001    -0.15300
C794        C  0.50682442  0.43272610  0.02289355     0.37100
N795        N  0.50510267  0.44533812  0.04336466    -0.89500
H796        H  0.51210518  0.39780744  0.03840583     0.18200
H797        H  0.01045532  0.44350460  0.96941486     0.18200
N798        N  0.01999382  0.39695842  0.96592690    -0.88500
H799        H  0.52603268  0.45333495  0.05123609     0.35500
H800        H  0.50181681  0.46401984  0.04149869     0.40600
H801        H  0.03975337  0.41471541  0.95902202     0.40300
H802        H  0.00179549  0.39136595  0.95535828     0.35100
C803        C  0.02331018  0.37534355  0.88268127    -0.26600
C804        C  0.05154150  0.38341140  0.87311061    -0.14700
C805        C  0.06757679  0.36882297  0.88014796     0.36000
C806        C  0.05577406  0.34758393  0.89711853    -0.26000
C807        C  0.02801254  0.34012506  0.90722855    -0.15300
C808        C  0.01155066  0.35420824  0.89968823     0.37100
N809        N  0.48554947  0.34472876  0.90687642    -0.89500
H810        H  0.01045913  0.38587825  0.87704050     0.18200
H811        H  0.06872832  0.33716167  0.90275196     0.18200
N812        N  0.09564153  0.37533462  0.86985581    -0.88500
H813        H  0.48878969  0.35219799  0.92290952     0.35500
H814        H  0.47077044  0.32109836  0.90637198     0.40600
H815        H  0.09057949  0.36782882  0.85382761     0.40300
H816        H  0.10477661  0.36295368  0.87703109     0.35100
C817        C  0.08547539  0.21945769  0.87486568    -0.26600
C818        C  0.06927686  0.18838347  0.86903238    -0.14700
C819        C  0.04508054  0.16788513  0.88238388     0.36000
C820        C  0.03750328  0.17875816  0.90094476    -0.26000
C821        C  0.05322448  0.21001432  0.90664203    -0.15300
C822        C  0.07780800  0.23050760  0.89343964     0.37100
N823        N  0.09515974  0.26238705  0.89898966    -0.89500
H824        H  0.10439341  0.23518405  0.86487507     0.18200
H825        H  0.01860141  0.16256074  0.91074246     0.18200
N826        N  0.02797438  0.13584623  0.87763111    -0.88500
H827        H  0.11219113  0.27433255  0.88753736     0.35500
H828        H  0.10634219  0.26417651  0.91360391     0.40600
H829        H  0.04301944  0.12738178  0.87671943     0.40300
H830        H  0.51557881  0.13418618  0.86219898     0.35100
C831        C  0.06394412  0.07003081  0.02196937    -0.26600
C832        C  0.05183684  0.05874048  0.00143026    -0.14700
C833        C  0.06573413  0.07660023  0.98311933     0.36000
C834        C  0.09213720  0.10512384  0.98551111    -0.26000
C835        C  0.10527605  0.11626856  0.00600788    -0.15300
C836        C  0.09040005  0.09865132  0.02446448     0.37100
N837        N  0.10205401  0.10945669  0.04573854    -0.89500
H838        H  0.05294264  0.05640183  0.03613292     0.18200
H839        H  0.10289875  0.11805494  0.97105198     0.18200
N840        N  0.05348230  0.06553465  0.96200424    -0.88500
H841        H  0.10655169  0.09349097  0.05305252     0.35500
H842        H  0.08500624  0.11043261  0.05465119     0.40600
H843        H  0.07045748  0.06498647  0.95273045     0.40300
H844        H  0.04856895  0.08133755  0.95490745     0.35100
C845        C  0.40341675  0.39778730  0.97552959    -0.26600
C846        C  0.39243897  0.37965839  0.99420459    -0.14700
C847        C  0.40871431  0.39118810  0.01385567     0.36000
C848        C  0.43412556  0.42069182  0.01462717    -0.26000
C849        C  0.44432844  0.43891713  0.99613552    -0.15300
C850        C  0.42922090  0.42714259  0.97635636     0.37100
N851        N  0.44010297  0.44489642  0.95705947    -0.89500
H852        H  0.39153790  0.38956301  0.96025710     0.18200
H853        H  0.44592349  0.42948855  0.02985221     0.18200
N854        N  0.39955231  0.37327521  0.03317972    -0.88500
H855        H  0.42229182  0.44721757  0.95054541     0.35500
H856        H  0.44541177  0.43262276  0.94595729     0.40600
H857        H  0.41787522  0.37092092  0.03855370     0.40300
H858        H  0.39500379  0.38528760  0.04500085     0.35100
C859        C  0.27260659  0.34604651  0.87131045    -0.26600
C860        C  0.30186646  0.37150499  0.87002677    -0.14700
C861        C  0.32110927  0.38107919  0.88822926     0.36000
C862        C  0.31052029  0.36503888  0.90766601    -0.26000
C863        C  0.28105130  0.33937591  0.90924547    -0.15300
C864        C  0.26174647  0.32996689  0.89074320     0.37100
N865        N  0.23140736  0.30399583  0.89150267    -0.89500
H866        H  0.25786024  0.33932805  0.85722572     0.18200
H867        H  0.32563561  0.37242169  0.92154859     0.18200
N868        N  0.35123908  0.40726029  0.88686725    -0.88500
H869        H  0.22118519  0.29931061  0.87622194     0.35500
H870        H  0.21835542  0.30991755  0.90134175     0.40600
H871        H  0.36368727  0.40201572  0.87590929     0.40300
H872        H  0.36249575  0.41157600  0.90174527     0.35100
C873        C  0.11617836  0.16388313  0.88588719    -0.26600
C874        C  0.12665060  0.18643870  0.86994299    -0.14700
C875        C  0.15487975  0.21358238  0.87267212     0.36000
C876        C  0.17197673  0.21727320  0.89131796    -0.26000
C877        C  0.16134334  0.19501441  0.90773304    -0.15300
C878        C  0.13281154  0.16791289  0.90480204     0.37100
N879        N  0.11969717  0.14423087  0.92066609    -0.89500
H880        H  0.09479543  0.14279860  0.88358000     0.18200
H881        H  0.19357142  0.23829809  0.89309943     0.18200
N882        N  0.16676774  0.23795042  0.85712990    -0.88500
H883        H  0.11618527  0.15319800  0.93491412     0.35500
H884        H  0.13464470  0.13598626  0.92354340     0.40600
H885        H  0.15192747  0.23314643  0.84410604     0.40300
H886        H  0.16836345  0.25719219  0.86476160     0.35100
C887        C  0.42927062  0.99770851  0.97507573    -0.26600
C888        C  0.43956317  0.99367619  0.99519249    -0.14700
C889        C  0.42180603  0.49133046  0.01335249     0.36000
C890        C  0.39657536  0.49555266  0.01176789    -0.26000
C891        C  0.38628884  0.99847665  0.99218675    -0.15300
C892        C  0.40287645  0.00025287  0.97331865     0.37100
N893        N  0.39331475  0.00512214  0.95255197    -0.89500
H894        H  0.44256857  0.99997872  0.96077761     0.18200
H895        H  0.38348745  0.49281574  0.02627864     0.18200
N896        N  0.42942932  0.48474003  0.03430114    -0.88500
H897        H  0.40769189  0.00522060  0.94037845     0.35500
H898        H  0.39579620  0.02693657  0.95274560     0.40600
H899        H  0.44899019  0.48280385  0.03395343     0.40300
H900        H  0.41152271  0.46344138  0.03905246     0.35100
C901        C  0.09819707  0.99854882  0.98653847    -0.26600
C902        C  0.10928916  0.49601150  0.00817630    -0.14700
C903        C  0.09381156  0.49686336  0.02694877     0.36000
C904        C  0.06858199  0.50132035  0.02506803    -0.26000
C905        C  0.05808245  0.50437115  0.00476383    -0.15300
C906        C  0.07244508  0.00188335  0.98449564     0.37100
N907        N  0.06113095  0.00281651  0.96345503    -0.89500
H908        H  0.10911083  0.99711313  0.97187885     0.18200
H909        H  0.05652360  0.50143114  0.03947958     0.18200
N910        N  0.10305013  0.49249604  0.04788661    -0.88500
H911        H  0.05644605  0.98285566  0.95518872     0.35500
H912        H  0.07859834  0.02118891  0.95513190     0.40600
H913        H  0.08450995  0.47354325  0.05494064     0.40300
H914        H  0.10824277  0.51168067  0.05735548     0.35100
C915        C  0.14189173  0.44708599  0.87256779    -0.26600
C916        C  0.11247601  0.44305797  0.87462507    -0.14700
C917        C  0.10425954  0.45139584  0.89412745     0.33300
C918        C  0.12540112  0.46331928  0.91124247    -0.26000
C919        C  0.15483476  0.46701064  0.90934882    -0.15300
C920        C  0.16295071  0.45867513  0.88967517     0.37100
N921        N  0.19260263  0.46209279  0.88684047    -0.89500
H922        H  0.14855388  0.44110417  0.85749726     0.18200
H923        H  0.12018739  0.97051780  0.92380429     0.18200
N924        N  0.07471538  0.44837723  0.89647293    -0.88500
H925        H  0.20296766  0.47645266  0.87364421     0.35500
H926        H  0.18982272  0.44064815  0.88309746     0.40600
H927        H  0.07769556  0.46993530  0.90006110     0.40300
H928        H  0.06569950  0.93592084  0.90707408     0.35100
C929        C  0.30952027  0.45775258  0.90155092    -0.26600
C930        C  0.27895413  0.44033760  0.90826128    -0.14700
C931        C  0.25788692  0.41630753  0.89492434     0.36000
C932        C  0.26781506  0.40981665  0.87548797    -0.26000
C933        C  0.29841802  0.42704037  0.86907113    -0.15300
C934        C  0.31928099  0.45145069  0.88203952     0.37100
N935        N  0.35050814  0.46958472  0.87556667    -0.89500
H936        H  0.32591602  0.47680073  0.91129043     0.18200
H937        H  0.25168997  0.39091929  0.86551778     0.18200
N938        N  0.22660999  0.39807713  0.90121458    -0.88500
H939        H  0.36426271  0.46856629  0.88777913     0.35500
H940        H  0.35553440  0.49226056  0.87433097     0.40600
H941        H  0.22146286  0.37532772  0.90208054     0.40300
H942        H  0.21303503  0.39960423  0.88908428     0.35100
C943        C  0.46545555  0.32207618  0.09893307    -0.26600
C944        C  0.44566676  0.29204471  0.09156757    -0.14700
C945        C  0.41820067  0.27395101  0.10290183     0.36000
C946        C  0.41138066  0.28608872  0.12129673    -0.26000
C947        C  0.43130354  0.31602752  0.12871232    -0.15300
C948        C  0.45873259  0.33413297  0.11738174     0.37100
N949        N  0.47975100  0.36465981  0.12466589    -0.89500
H950        H  0.48671634  0.33608996  0.09048476     0.18200
H951        H  0.39031728  0.27207670  0.12995770     0.18200
N952        N  0.39713399  0.24350059  0.09556707    -0.88500
H953        H  0.46899198  0.37763964  0.12325330     0.35500
H954        H  0.49892171  0.37487825  0.11466580     0.40600
H955        H  0.38916988  0.24525182  0.08034174     0.40300
H956        H  0.37807084  0.23322823  0.10566966     0.35100
C957        C  0.34507686  0.29532025  0.13011131    -0.26600
C958        C  0.37462206  0.32054030  0.12904994    -0.14700
C959        C  0.38415967  0.33865939  0.11034589     0.36000
C960        C  0.36451238  0.33002926  0.09246553    -0.26000
C961        C  0.33536946  0.30376674  0.09297128    -0.15300
C962        C  0.32542052  0.28660713  0.11235520     0.37100
N963        N  0.29558443  0.26047144  0.11471614    -0.89500
H964        H  0.33745735  0.28191563  0.14478009     0.18200
H965        H  0.37243433  0.34349831  0.07785889     0.18200
N966        N  0.41373633  0.36569652  0.10960562    -0.88500
H967        H  0.29355577  0.24297402  0.10461478     0.35500
H968        H  0.27932823  0.26653784  0.11041934     0.40600
H969        H  0.41402854  0.38106717  0.12108446     0.40300
H970        H  0.41738636  0.37635289  0.09457771     0.35100
C971        C  0.33505572  0.10103623  0.31950674    -0.26600
C972        C  0.33152793  0.11049360  0.34007099    -0.14700
C973        C  0.32512733  0.09081016  0.35789488     0.36000
C974        C  0.32346376  0.06263621  0.35470884    -0.26000
C975        C  0.32790346  0.05331438  0.33420231    -0.15300
C976        C  0.33268585  0.07243848  0.31622353     0.37100
N977        N  0.33562367  0.06318334  0.29478798    -0.89500
H978        H  0.33942855  0.11607613  0.30587617     0.18200
H979        H  0.31934817  0.04823588  0.36868601     0.18200
N980        N  0.32048167  0.09853969  0.37941867    -0.88500
H981        H  0.34011084  0.08041537  0.28363296     0.35500
H982        H  0.31444362  0.04459044  0.29046913     0.40600
H983        H  0.32208263  0.11990397  0.38011060     0.40300
H984        H  0.33793058  0.09981065  0.38922321     0.35100
C985        C  0.35096859  0.27625464  0.36219339    -0.26600
C986        C  0.34785470  0.28820889  0.34246423    -0.14700
C987        C  0.34083512  0.26978138  0.32356306     0.36000
C988        C  0.33726661  0.24063084  0.32488319    -0.26000
C989        C  0.34040524  0.22895878  0.34453186    -0.15300
C990        C  0.34727204  0.24693235  0.36350969     0.37100
N991        N  0.35078992  0.23644705  0.38429909    -0.89500
H992        H  0.35601786  0.28965456  0.37689943     0.18200
H993        H  0.33211363  0.22689628  0.31032280     0.18200
N994        N  0.33663064  0.27952965  0.30279774    -0.88500
H995        H  0.33373640  0.23543239  0.39438118     0.35500
H996        H  0.34736673  0.21436445  0.38346551     0.40600
H997        H  0.35685962  0.29914797  0.29844470     0.40300
H998        H  0.31876460  0.28425869  0.30364637     0.35100
C999        C  0.31960339  0.50653319  0.43734106    -0.26600
C1000       C  0.31198109  0.47641561  0.43206012    -0.14700
C1001       C  0.29112650  0.45237404  0.44570123     0.36000
C1002       C  0.27800169  0.45882326  0.46331992    -0.26000
C1003       C  0.28484872  0.48864898  0.46808299    -0.15300
C1004       C  0.30644519  0.51299820  0.45517100     0.37100
N1005       N  0.31504345  0.54433341  0.45924956    -0.89500
H1006       H  0.33545899  0.52525404  0.42725867     0.18200
H1007       H  0.26145145  0.44009483  0.47310352     0.18200
N1008       N  0.28157407  0.42090241  0.44173138    -0.88500
H1009       H  0.30799556  0.55202663  0.44597840     0.35500
H1010       H  0.30389762  0.54656644  0.47270226     0.40600
H1011       H  0.30054702  0.41792760  0.44274381     0.40300
H1012       H  0.27173784  0.41475582  0.42635088     0.35100
C1013       C  0.27777680  0.33848788  0.44578483    -0.26600
C1014       C  0.28631457  0.32966916  0.42662956    -0.14700
C1015       C  0.28704076  0.30198981  0.42626191     0.36000
C1016       C  0.28033302  0.28465890  0.44513498    -0.26000
C1017       C  0.27156792  0.29340778  0.46405831    -0.15300
C1018       C  0.27025304  0.32067665  0.46446285     0.37100
N1019       N  0.26066373  0.33061559  0.48317523    -0.89500
H1020       H  0.27709797  0.35955957  0.44640100     0.18200
H1021       H  0.28085549  0.26348116  0.44493211     0.18200
N1022       N  0.29424548  0.29129267  0.40678842    -0.88500
H1023       H  0.27920958  0.35130707  0.48836343     0.35500
H1024       H  0.25489331  0.31538609  0.49599994     0.40600
H1025       H  0.27663423  0.28599319  0.39571902     0.40300
H1026       H  0.29444330  0.27098555  0.40953842     0.35100
C1027       C  0.37632574  0.33013820  0.22045561    -0.26600
C1028       C  0.39127780  0.35297643  0.20498101    -0.14700
C1029       C  0.39289840  0.38130532  0.20761592     0.36000
C1030       C  0.38054239  0.38688483  0.22612716    -0.26000
C1031       C  0.36639704  0.36449037  0.24225958    -0.15300
C1032       C  0.36391321  0.33558414  0.23906390     0.37100
N1033       N  0.34925985  0.31177026  0.25467091    -0.89500
H1034       H  0.37431105  0.30795115  0.21809603     0.18200
H1035       H  0.38280589  0.40924908  0.22802368     0.18200
N1036       N  0.40741573  0.40457895  0.19159969    -0.88500
H1037       H  0.36497461  0.30529438  0.25962428     0.35500
H1038       H  0.33110679  0.29296118  0.24704297     0.40600
H1039       H  0.39146167  0.41036325  0.18599480     0.40300
H1040       H  0.42517278  0.42390102  0.19906999     0.35100
C1041       C  0.23295565  0.07400991  0.32513947    -0.26600
C1042       C  0.21618003  0.06341101  0.34442305    -0.14700
C1043       C  0.22957026  0.07949507  0.36382279     0.36000
C1044       C  0.25951056  0.10456226  0.36368606    -0.26000
C1045       C  0.27629747  0.11450167  0.34446115    -0.15300
C1046       C  0.26263392  0.09930338  0.32502449     0.37100
N1047       N  0.27876687  0.10971809  0.30504147    -0.89500
H1048       H  0.22336382  0.06217863  0.31002052     0.18200
H1049       H  0.26964989  0.11645312  0.37866928     0.18200
N1050       N  0.21280826  0.07081645  0.38364867    -0.88500
H1051       H  0.26588116  0.11525936  0.29473783     0.35500
H1052       H  0.28007945  0.09156690  0.29801255     0.40600
H1053       H  0.22516026  0.06587955  0.39489251     0.40300
H1054       H  0.21147840  0.08959222  0.38941997     0.35100
C1055       C  0.40284789  0.23786215  0.31737032    -0.26600
C1056       C  0.39519044  0.22489903  0.33806765    -0.14700
C1057       C  0.41739418  0.23731871  0.35468837     0.36000
C1058       C  0.44654312  0.26170784  0.35007429    -0.26000
C1059       C  0.45430338  0.27520630  0.32946924    -0.15300
C1060       C  0.43193686  0.26290200  0.31295346     0.37100
N1061       N  0.43836952  0.27579378  0.29172963    -0.89500
H1062       H  0.38611802  0.22828615  0.30446883     0.18200
H1063       H  0.46300484  0.27075796  0.36314289     0.18200
N1064       N  0.41134560  0.22603735  0.37645331    -0.88500
H1065       H  0.42261343  0.28282294  0.28814815     0.35500
H1066       H  0.43500059  0.25860793  0.28074465     0.40600
H1067       H  0.38896197  0.20832606  0.37822563     0.40300
H1068       H  0.41366344  0.24379082  0.38646393     0.35100
C1069       C  0.05221713  0.33302663  0.44394105    -0.26600
C1070       C  0.03191706  0.32564575  0.42640268    -0.14700
C1071       C  0.00364435  0.29785766  0.42710880     0.36000
C1072       C  0.99665619  0.27821782  0.44485915    -0.26000
C1073       C  0.01711389  0.28568800  0.46212417    -0.15300
C1074       C  0.04494542  0.31347672  0.46174367     0.37100
N1075       N  0.06595987  0.32186215  0.47942816    -0.89500
H1076       H  0.07402942  0.35403935  0.44387051     0.18200
H1077       H  0.97484407  0.25721038  0.44532372     0.18200
N1078       N  0.98197042  0.28916305  0.40982478    -0.88500
H1079       H  0.06965541  0.34268932  0.48568494     0.35500
H1080       H  0.08671825  0.32524279  0.47339192     0.40600
H1081       H  0.96154618  0.28624864  0.41619081     0.40300
H1082       H  0.97778659  0.26808097  0.40373727     0.35100
C1083       C  0.17930774  0.43142535  0.44015784    -0.26600
C1084       C  0.18566837  0.45191819  0.42297170    -0.14700
C1085       C  0.21134076  0.48177370  0.42467571     0.36000
C1086       C  0.22802180  0.49103453  0.44407240    -0.26000
C1087       C  0.22024934  0.47109879  0.46159509    -0.15300
C1088       C  0.19638706  0.44051680  0.45933384     0.37100
N1089       N  0.18840436  0.41829555  0.47621483    -0.89500
H1090       H  0.16014862  0.40833586  0.43910341     0.18200
H1091       H  0.24664620  0.51431734  0.44582108     0.18200
N1092       N  0.21996480  0.50294440  0.40704418    -0.88500
H1093       H  0.19145988  0.40068990  0.47011256     0.35500
H1094       H  0.20309857  0.42725203  0.48945315     0.40600
H1095       H  0.22689653  0.49418738  0.39430805     0.40300
H1096       H  0.23889650  0.52397754  0.41120412     0.35100
C1097       C  0.47176858  0.35007908  0.23815174    -0.26600
C1098       C  0.48691706  0.38143945  0.24351758    -0.14700
C1099       C  0.48407214  0.40179424  0.22930694     0.36000
C1100       C  0.46686163  0.39043204  0.21009513    -0.26000
C1101       C  0.45229513  0.35921761  0.20474916    -0.15300
C1102       C  0.45479014  0.33893506  0.21904565     0.37100
N1103       N  0.44018415  0.30683431  0.21459182    -0.89500
H1104       H  0.47371014  0.33398341  0.24861791     0.18200
H1105       H  0.46459868  0.40596222  0.19925009     0.18200
N1106       N  0.49845353  0.43381179  0.23440211    -0.88500
H1107       H  0.44861686  0.30367548  0.19999025     0.35500
H1108       H  0.41677028  0.29841081  0.21281430     0.40600
H1109       H  0.48809152  0.43605257  0.24835960     0.40300
H1110       H  0.49438229  0.44559917  0.22219402     0.35100
C1111       C  0.44283062  0.15443455  0.10464519    -0.26600
C1112       C  0.46813450  0.15884251  0.09237072    -0.14700
C1113       C  0.48142099  0.14059085  0.09699805     0.36000
C1114       C  0.46939659  0.11875836  0.11359900    -0.26000
C1115       C  0.44385683  0.11417968  0.12547505    -0.15300
C1116       C  0.43062124  0.13228127  0.12099007     0.37100
N1117       N  0.40504299  0.12856189  0.13330537    -0.89500
H1118       H  0.43191081  0.16774470  0.10124386     0.18200
H1119       H  0.48016663  0.10539193  0.11732269     0.18200
N1120       N  0.50731903  0.14430443  0.08508846    -0.88500
H1121       H  0.91968542  0.15598859  0.14444238     0.35500
H1122       H  0.38702319  0.12317565  0.12260311     0.40600
H1123       H  0.50153106  0.12334132  0.07787327     0.40300
H1124       H  0.52511452  0.14977464  0.09601999     0.35100
C1125       C  0.35633533  0.05184738  0.12752706    -0.26600
C1126       C  0.38464650  0.05320009  0.12600145    -0.14700
C1127       C  0.39092783  0.04075340  0.10747606     0.36000
C1128       C  0.36934681  0.02872122  0.09063830    -0.26000
C1129       C  0.34129936  0.02829070  0.09177686    -0.15300
C1130       C  0.33455362  0.03941378  0.11080719     0.37100
N1131       N  0.30564634  0.03807879  0.11319966    -0.89500
H1132       H  0.35118867  0.06055824  0.14198997     0.18200
H1133       H  0.37492882  0.02008574  0.07633851     0.18200
N1134       N  0.41837482  0.03908977  0.10534972    -0.88500
H1135       H  0.30451719  0.04742719  0.12803240     0.35500
H1136       H  0.28875188  0.01502221  0.11353983     0.40600
H1137       H  0.43213977  0.04722328  0.11909201     0.40300
H1138       H  0.43089669  0.05320537  0.09252529     0.35100
C1139       C  0.38799670  0.04612700  0.21785141    -0.26600
C1140       C  0.40508822  0.04039577  0.20271369    -0.14700
C1141       C  0.41550716  0.02009252  0.20780810     0.36000
C1142       C  0.40934194  0.00646353  0.22829262    -0.26000
C1143       C  0.39258735  0.01240201  0.24386315    -0.15300
C1144       C  0.38180414  0.03266502  0.23832182     0.37100
N1145       N  0.34890880  0.52131111  0.24498206    -0.89500
H1146       H  0.38012472  0.06193293  0.21391039     0.18200
H1147       H  0.41749322  0.99082325  0.23196727     0.18200
N1148       N  0.43253253  0.01362693  0.19217298    -0.88500
H1149       H  0.37730751  0.05003457  0.26677450     0.35500
H1150       H  0.33291057  0.49862337  0.24855812     0.40600
H1151       H  0.41807153  0.00263314  0.17904643     0.40300
H1152       H  0.43876815  0.99833542  0.19845289     0.35100
C1153       C  0.23175792  0.14087566  0.12445002    -0.26600
C1154       C  0.20099551  0.12546729  0.13050869    -0.14700
C1155       C  0.17884612  0.12404478  0.11616557     0.36000
C1156       C  0.18777041  0.13840816  0.09604520    -0.26000
C1157       C  0.21867884  0.15415824  0.08983632    -0.15300
C1158       C  0.24080834  0.15460209  0.10420133     0.37100
N1159       N  0.27234889  0.16768103  0.09855047    -0.89500
H1160       H  0.24882740  0.14153512  0.13537895     0.18200
H1161       H  0.17036490  0.13777180  0.08547839     0.18200
N1162       N  0.14723018  0.10778665  0.12195363    -0.88500
H1163       H  0.28221361  0.19130051  0.09708673     0.35500
H1164       H  0.27383124  0.15830159  0.08382468     0.40600
H1165       H  0.13548521  0.09084086  0.11029667     0.40300
H1166       H  0.13900097  0.12307507  0.12140094     0.35100
C1167       C  0.23198300  0.07948780  0.12850044    -0.26600
C1168       C  0.20094464  0.06853772  0.13239264    -0.14700
C1169       C  0.17935388  0.05218930  0.11595822     0.36000
C1170       C  0.18948779  0.04772763  0.09596243    -0.26000
C1171       C  0.22069488  0.05921846  0.09179202    -0.15300
C1172       C  0.24211287  0.07571147  0.10825771     0.37100
N1173       N  0.27421703  0.08954434  0.10436226    -0.89500
H1174       H  0.24864758  0.09267623  0.14087636     0.18200
H1175       H  0.17256611  0.03469133  0.08369745     0.18200
N1176       N  0.14713348  0.04030563  0.11878236    -0.88500
H1177       H  0.28339557  0.08116829  0.11577672     0.35500
H1178       H  0.28407563  0.11308715  0.10687334     0.40600
H1179       H  0.14204482  0.04462409  0.13427439     0.40300
H1180       H  0.13632137  0.01654421  0.11720752     0.35100
C1181       C  0.13169061  0.03961907  0.21417737    -0.26600
C1182       C  0.16226323  0.05228040  0.20793140    -0.14700
C1183       C  0.18140965  0.04440536  0.21937084     0.36000
C1184       C  0.17262249  0.52931403  0.23936856    -0.26000
C1185       C  0.13933342  0.01194612  0.24348602    -0.15300
C1186       C  0.12008396  0.01962118  0.23179814     0.37100
N1187       N  0.08899684  0.00800458  0.23815025    -0.89500
H1188       H  0.11668305  0.04520819  0.20527085     0.18200
H1189       H  0.18911379  0.52696804  0.24914387     0.18200
N1190       N  0.21268745  0.05692592  0.21321661    -0.88500
H1191       H  0.07498953  0.99615353  0.22501265     0.35500
H1192       H  0.08595975  0.02658262  0.24160385     0.40600
H1193       H  0.22635741  0.06881518  0.22647947     0.40300
H1194       H  0.22243770  0.55084856  0.21413478     0.35100
C1195       C  0.23603038  0.17073224  0.36134099    -0.26600
C1196       C  0.22168739  0.16649191  0.34107019    -0.14700
C1197       C  0.23717943  0.16524088  0.32235935     0.36000
C1198       C  0.26658330  0.16916975  0.32439981    -0.26000
C1199       C  0.28048992  0.17293371  0.34463881    -0.15300
C1200       C  0.26480988  0.17331562  0.36343063     0.37100
N1201       N  0.27707011  0.17600693  0.38481909    -0.89500
H1202       H  0.22473875  0.17184478  0.37590065     0.18200
H1203       H  0.27843549  0.16816089  0.31011850     0.18200
N1204       N  0.22319491  0.15991023  0.30135339    -0.88500
H1205       H  0.26167911  0.15672907  0.39354154     0.35500
H1206       H  0.29745009  0.17558887  0.38450007     0.40600
H1207       H  0.20463867  0.13761368  0.30119059     0.40300
H1208       H  0.23811840  0.16068764  0.28936358     0.35100
C1209       C  0.43433792  0.16332277  0.35097126    -0.26600
C1210       C  0.44832098  0.17005450  0.33049641    -0.14700
C1211       C  0.43296315  0.17431983  0.31294733     0.36000
C1212       C  0.40439115  0.17210311  0.31643641    -0.26000
C1213       C  0.39105971  0.16616151  0.33706807    -0.15300
C1214       C  0.40628249  0.16157046  0.35454703     0.37100
N1215       N  0.39423973  0.15516044  0.37614092    -0.89500
H1216       H  0.44527805  0.15931243  0.36463324     0.18200
H1217       H  0.39269927  0.17577496  0.30310922     0.18200
N1218       N  0.44638748  0.18117499  0.29179377    -0.88500
H1219       H  0.41001299  0.17242315  0.38631016     0.35500
H1220       H  0.37407550  0.15585382  0.37733394     0.40600
H1221       H  0.46608190  0.20267329  0.29261873     0.40300
H1222       H  0.43182186  0.18305224  0.28068836     0.35100
C1223       C  0.04859982  0.21639464  0.44187666    -0.26600
C1224       C  0.02635321  0.19836265  0.42633940    -0.14700
C1225       C  0.99595427  0.19182653  0.42958725     0.36000
C1226       C  0.48847615  0.20326393  0.44801758    -0.26000
C1227       C  0.01154909  0.22352494  0.46218465    -0.15300
C1228       C  0.04146124  0.22873965  0.45967933     0.37100
N1229       N  0.06499426  0.24637148  0.47508859    -0.89500
H1230       H  0.07200674  0.22157322  0.44004644     0.18200
H1231       H  0.46551992  0.19920933  0.45037071     0.18200
N1232       N  0.47058340  0.16914774  0.41623256    -0.88500
H1233       H  0.05801204  0.23604937  0.49021475     0.35500
H1234       H  0.06758171  0.26817310  0.47599452     0.40600
H1235       H  0.45009361  0.16816516  0.42043886     0.40300
H1236       H  0.46708446  0.14708121  0.41819425     0.35100
C1237       C  0.19452229  0.21346368  0.42560882    -0.26600
C1238       C  0.17857847  0.22932337  0.42229077    -0.14700
C1239       C  0.18040851  0.25029361  0.43829372     0.36000
C1240       C  0.19769752  0.25456116  0.45700978    -0.26000
C1241       C  0.21285862  0.23803712  0.46038446    -0.15300
C1242       C  0.21157950  0.21749235  0.44432396     0.37100
N1243       N  0.22726651  0.20041927  0.44628084    -0.89500
H1244       H  0.19327094  0.19707373  0.41371496     0.18200
H1245       H  0.19925765  0.27085324  0.46910663     0.18200
N1246       N  0.16547726  0.26787115  0.43596749    -0.88500
H1247       H  0.24305519  0.20710797  0.43368129     0.35500
H1248       H  0.23984704  0.20541611  0.46056355     0.40600
H1249       H  0.14188313  0.25311328  0.43582906     0.40300
H1250       H  0.17217724  0.27963213  0.42131811     0.35100
C1251       C  0.00488544  0.09954708  0.22308672    -0.26600
C1252       C  0.49495243  0.11060642  0.24140190    -0.14700
C1253       C  0.46821276  0.11294765  0.23947691     0.36000
C1254       C  0.45311363  0.10692924  0.21945686    -0.26000
C1255       C  0.46304897  0.09724605  0.20156228    -0.15300
C1256       C  0.48957102  0.09491870  0.20339311     0.37100
N1257       N  0.00334233  0.08801040  0.18471840    -0.89500
H1258       H  0.02661531  0.10021333  0.22369013     0.18200
H1259       H  0.43281759  0.10887598  0.21792762     0.18200
N1260       N  0.45629932  0.12130490  0.25772496    -0.88500
H1261       H  0.00814061  0.10488172  0.17321238     0.35500
H1262       H  0.48402153  0.06425682  0.18011896     0.40600
H1263       H  0.44870506  0.10354552  0.26892367     0.40300
H1264       H  0.43714544  0.12283080  0.25331181     0.35100
C1265       C  0.17304550  0.13780467  0.24084874    -0.26600
C1266       C  0.14498829  0.13739695  0.23993292    -0.14700
C1267       C  0.12636304  0.12476866  0.22136743     0.36000
C1268       C  0.13579138  0.11261452  0.20457444    -0.26000
C1269       C  0.16330523  0.11234586  0.20591943    -0.15300
C1270       C  0.18234681  0.12543092  0.22405997     0.37100
N1271       N  0.21100985  0.12601370  0.22536002    -0.89500
H1272       H  0.18754770  0.14713846  0.25495972     0.18200
H1273       H  0.12136843  0.10303133  0.19043575     0.18200
N1274       N  0.09779357  0.12406218  0.21942176    -0.88500
H1275       H  0.22224182  0.13618780  0.23983404     0.35500
H1276       H  0.22485849  0.13991741  0.21288775     0.40600
H1277       H  0.08057397  0.10129235  0.21752096     0.40300
H1278       H  0.09840717  0.13586263  0.20541413     0.35100
O1279       O  0.02849731  0.64142047  0.32783661    -0.88600
C1280       C  0.09561381  0.69546642  0.28504981     0.87400
Mg1281     Mg  0.02400119  0.65789386  0.35889821     1.58100
O1282       O  0.10709165  0.64048630  0.31222452    -0.88300
O1283       O  0.03421675  0.60492815  0.31374222    -0.75700
C1284       C  0.16075086  0.72184620  0.40258363     0.92500
O1285       O  0.05844174  0.71400579  0.32122130    -0.75500
O1286       O  0.13650882  0.72347376  0.40323356    -0.83000
Mg1287     Mg  0.03268029  0.67009459  0.30078702     1.58000
C1288       C  0.19419702  0.66932122  0.33820023     0.92400
O1289       O  0.00557120  0.63083358  0.27668236    -0.81300
H1290       H  0.09400495  0.59695708  0.31886208    -0.06600
C1291       C  0.15162385  0.72650506  0.33847899     0.87300
O1292       O  0.04875461  0.63593175  0.37568198    -0.75800
O1293       O  0.07482524  0.67146864  0.29254745    -0.88500
O1294       O  0.18149376  0.66796819  0.32013982    -0.81300
C1295       C  0.13475168  0.64987117  0.25886998     0.92500
C1296       C  0.01206289  0.61758085  0.26175747     0.92400
Mg1297     Mg  0.13904410  0.67050612  0.36386997     1.58000
O1298       O  0.16735003  0.71118469  0.38611830    -0.81300
O1299       O  0.11350966  0.62618170  0.34410687    -0.75500
O1300       O  0.10678574  0.64245405  0.26056518    -0.81300
O1301       O  0.48954225  0.67011494  0.30711871    -0.83100
O1302       O  0.06592336  0.69646901  0.40469016    -0.81400
C1303       C  0.10469039  0.62029792  0.32459816     0.86800
O1304       O  0.09721662  0.66886042  0.37200562    -0.88500
O1305       O  0.14354427  0.69914208  0.33670017    -0.88600
O1306       O  0.13863618  0.73567778  0.35164717    -0.75700
Mg1307     Mg  0.07200452  0.62766915  0.28824961     1.58000
O1308       O  0.15371915  0.66375059  0.27405751    -0.83000
H1309       H  0.00239441  0.59773624  0.33644681    -0.06800
O1310       O  0.06590363  0.70015687  0.35300324    -0.88300
H1311       H  0.07908817  0.74364170  0.34611182    -0.06600
H1312       H  0.08240819  0.63001683  0.38846779    -0.06800
C1313       C  0.06811266  0.72020243  0.34055724     0.86800
C1314       C  0.02067265  0.61410260  0.32636092     0.87400
C1315       C  0.07659762  0.64457595  0.37929208     0.87400
H1316       H  0.16979886  0.74294154  0.32835875    -0.06800
O1317       O  0.12341260  0.70378333  0.28860090    -0.75800
Mg1318     Mg  0.10076455  0.71250000  0.37719627     1.58000
H1319       H  0.09002231  0.70998813  0.27562392    -0.06800
C1320       C  0.48012210  0.67450224  0.32512299     0.92400
O1321       O  0.01905215  0.67592412  0.39126883    -0.83000
C1322       C  0.03792035  0.68875138  0.40666150     0.92500
O1323       O  0.03596008  0.61530620  0.26263173    -0.83000
Mg1324     Mg  0.14886657  0.68276303  0.30592141     1.58200
O1325       O  0.99309754  0.67460493  0.34528833    -0.81300
O1326       O  0.18301977  0.67218512  0.35580634    -0.83000
C1327       C  0.17107043  0.59991233  0.18810866     0.02000
C1328       C  0.17190055  0.57237594  0.18953085     0.02000
C1329       C  0.18067796  0.56178232  0.17144665    -0.18500
C1330       C  0.18869284  0.57826405  0.15215277     0.02000
C1331       C  0.18848259  0.60599234  0.15093008     0.02000
C1332       C  0.17942251  0.61643431  0.16878659    -0.18500
H1333       H  0.17925944  0.63777087  0.16772979     0.04000
H1334       H  0.18077234  0.54039986  0.17227778     0.04000
C1335       C  0.41623392  0.55634695  0.18190857     0.02000
C1336       C  0.44416842  0.58430598  0.18240277     0.02000
C1337       C  0.45320320  0.60347236  0.16431388    -0.18500
C1338       C  0.43519174  0.59521313  0.14554884     0.02000
C1339       C  0.40724881  0.56706905  0.14493674     0.02000
C1340       C  0.39800078  0.54814301  0.16326503    -0.18500
H1341       H  0.37646770  0.52680021  0.16299054     0.04000
H1342       H  0.47411370  0.62537369  0.16499060     0.04000
O1343       O  0.14165236  0.95279118  0.34027048    -0.88600
C1344       C  0.07304017  0.92985143  0.38377080     0.87400
Mg1345     Mg  0.14441433  0.97516020  0.31029451     1.58100
O1346       O  0.06884666  0.86907015  0.35306424    -0.88300
O1347       O  0.14106608  0.91176354  0.35183474    -0.75700
C1348       C  0.00658833  0.89540695  0.26468189     0.92500
O1349       O  0.10534940  0.98837902  0.34990316    -0.75500
O1350       O  0.02925829  0.92257245  0.26561292    -0.83000
Mg1351     Mg  0.13459098  0.97294352  0.36879757     1.58000
C1352       C  0.48432308  0.80575436  0.32745574     0.92400
O1353       O  0.16473590  0.96271242  0.39098053    -0.81300
H1354       H  0.08544352  0.84226016  0.34385335    -0.06600
C1355       C  0.01642176  0.90417659  0.32996566     0.87300
O1356       O  0.12246793  0.92939027  0.29192386    -0.75800
O1357       O  0.09540457  0.92948513  0.37612867    -0.88500
O1358       O  0.99860551  0.81684328  0.34459929    -0.81300
C1359       C  0.04147483  0.84434663  0.40653896     0.92500
C1360       C  0.16274595  0.94230308  0.40398299     0.92400
Mg1361     Mg  0.03303957  0.86598594  0.30174463     1.58000
O1362       O  0.00247634  0.87591251  0.27926778    -0.81300
O1363       O  0.06227449  0.85024004  0.32034965    -0.75500
O1364       O  0.06925944  0.86560415  0.40508197    -0.81300
O1365       O  0.17828817  0.51869802  0.36146256    -0.83100
O1366       O  0.10058275  0.97266612  0.26503573    -0.81400
C1367       C  0.07259868  0.85328967  0.33947711     0.86800
O1368       O  0.07295168  0.90916137  0.29428555    -0.88500
O1369       O  0.02705364  0.88687594  0.33031777    -0.88600
O1370       O  0.02754980  0.92748164  0.31782288    -0.75700
Mg1371     Mg  0.10346603  0.89114712  0.37750666     1.58000
O1372       O  0.02241937  0.83928845  0.39144484    -0.83000
H1373       H  0.17146439  0.94061824  0.32985798    -0.06800
O1374       O  0.10027226  0.97083703  0.31683816    -0.88300
H1375       H  0.08284877  0.99687513  0.32618783    -0.06600
H1376       H  0.09220662  0.88952113  0.27734302    -0.06800
C1377       C  0.09580943  0.98597456  0.33058405     0.86800
C1378       C  0.15244900  0.93564518  0.34032638     0.87400
C1379       C  0.09550691  0.90860561  0.28725059     0.87400
H1380       H  0.99759401  0.89968830  0.34048853    -0.06800
O1381       O  0.04598009  0.90922271  0.37920819    -0.75800
Mg1382     Mg  0.06551823  0.94765288  0.29211341     1.58000
H1383       H  0.07659737  0.94869426  0.39406023    -0.06800
C1384       C  0.18774319  0.53367340  0.34397208     0.92400
O1385       O  0.14768078  0.99868885  0.27856978    -0.83000
C1386       C  0.12865935  0.99306930  0.26333324     0.92500
O1387       O  0.14050483  0.91496805  0.40300990    -0.83000
Mg1388     Mg  0.02498263  0.86404432  0.36025605     1.58200
O1389       O  0.17430832  0.52246882  0.32601716    -0.81300
O1390       O  0.49206844  0.82081643  0.30992679    -0.83000
O1391       O  0.31783484  0.86608363  0.34238730    -0.88600
C1392       C  0.37332743  0.93710555  0.38269607     0.87400
Mg1393     Mg  0.33262518  0.86114475  0.31095673     1.58100
O1394       O  0.31321894  0.94243724  0.35875691    -0.88300
O1395       O  0.28126848  0.87039797  0.35779155    -0.75700
C1396       C  0.38403921  0.99441496  0.26430412     0.92500
O1397       O  0.39162179  0.90017642  0.34622305    -0.75500
O1398       O  0.38812372  0.97163460  0.26539035    -0.83000
Mg1399     Mg  0.34978490  0.87387558  0.36811067     1.58000
C1400       C  0.32781184  0.52387509  0.33068234     0.92400
O1401       O  0.31331841  0.84637488  0.39287228    -0.81300
H1402       H  0.26861426  0.92690721  0.35473346    -0.06600
C1403       C  0.39544644  0.99057831  0.32903235     0.87300
O1404       O  0.30657892  0.88258828  0.29509095    -0.75800
O1405       O  0.34932957  0.91493500  0.37621619    -0.88500
O1406       O  0.33188818  0.01309428  0.35040340    -0.81300
C1407       C  0.32553121  0.97066285  0.41245054     0.92500
C1408       C  0.29862736  0.85037392  0.40793064     0.92400
Mg1409     Mg  0.33564916  0.97306942  0.30586772     1.58000
O1410       O  0.37148802  0.00085150  0.27971945    -0.81300
O1411       O  0.29435901  0.94664712  0.32812213    -0.75500
O1412       O  0.32284960  0.94442263  0.41025119    -0.81300
O1413       O  0.34850653  0.82973320  0.35967804    -0.83100
O1414       O  0.36424299  0.90212124  0.26408836    -0.81400
C1415       C  0.29118074  0.93840594  0.34772005     0.86800
O1416       O  0.33647197  0.93197122  0.29795409    -0.88500
O1417       O  0.36807943  0.98169936  0.33173487    -0.88600
O1418       O  0.40429048  0.97721412  0.31592421    -0.75700
Mg1419     Mg  0.30483727  0.90903711  0.38283616     1.58000
O1420       O  0.33533210  0.98971799  0.39694326    -0.83000
H1421       H  0.27384461  0.83828656  0.33509711    -0.06800
O1422       O  0.37301744  0.90479349  0.31560914    -0.88300
H1423       H  0.41761225  0.92030402  0.31976020    -0.06600
H1424       H  0.29594361  0.91347491  0.28307445    -0.06800
C1425       C  0.39499316  0.90874451  0.32668941     0.86800
C1426       C  0.29040754  0.85720509  0.34477153     0.87400
C1427       C  0.31249031  0.90974054  0.29154703     0.87400
H1428       H  0.41223356  0.00972633  0.33842134    -0.06800
O1429       O  0.37927507  0.96432265  0.37931970    -0.75800
Mg1430     Mg  0.38082739  0.93786896  0.29131011     1.58000
H1431       H  0.38984894  0.93326624  0.39110525    -0.06800
C1432       C  0.35140376  0.81938539  0.34163972     0.92400
O1433       O  0.34952735  0.85657002  0.27811698    -0.83000
C1434       C  0.35959949  0.87501082  0.26234268     0.92500
O1435       O  0.29510917  0.87355160  0.40833055    -0.83000
Mg1436     Mg  0.35321168  0.98596131  0.36365838     1.58200
O1437       O  0.35379677  0.83346988  0.32410631    -0.81300
O1438       O  0.33191280  0.51415635  0.31272442    -0.83000
C1439       C  0.40728910  0.84795281  0.18575083     0.02000
C1440       C  0.43564386  0.84886303  0.18621565     0.02000
C1441       C  0.44493498  0.83893087  0.16781746    -0.18500
C1442       C  0.42630891  0.82838574  0.14912353     0.02000
C1443       C  0.39870321  0.82909351  0.14879265     0.02000
C1444       C  0.38947137  0.83855306  0.16707636    -0.18500
H1445       H  0.36791528  0.83833889  0.16683758     0.04000
H1446       H  0.46642791  0.83908811  0.16813025     0.04000
O1447       O  0.21797929  0.52635796  0.00629611    -0.88600
C1448       C  0.23519269  0.97283408  0.04738115     0.87400
Mg1449     Mg  0.19496767  0.50884402  0.97597714     1.58100
O1450       O  0.30024645  0.53171762  0.01939434    -0.88300
O1451       O  0.25987589  0.56401375  0.01979907    -0.75700
C1452       C  0.26727385  0.94515741  0.92865768     0.92500
O1453       O  0.17705459  0.95325663  0.01313518    -0.75500
O1454       O  0.24103576  0.94263998  0.92940740    -0.83000
Mg1455     Mg  0.19639619  0.99782725  0.03296001     1.58000
C1456       C  0.35964276  0.50515538  0.99163555     0.92400
O1457       O  0.20832024  0.53748264  0.05721614    -0.81300
H1458       H  0.32922064  0.57556733  0.01257978    -0.06600
C1459       C  0.25786628  0.94175863  0.99342766     0.87300
O1460       O  0.24059273  0.53257676  0.95763470    -0.75800
O1461       O  0.23779923  0.99668581  0.04001617    -0.88500
O1462       O  0.34951828  0.50887751  0.00954446    -0.81300
C1463       C  0.32252408  0.52338173  0.07229109     0.92500
C1464       C  0.22779852  0.54966194  0.07241301     0.92400
Mg1465     Mg  0.30153390  0.50257148  0.96687267     1.58000
O1466       O  0.28635397  0.95688536  0.94410266    -0.81300
O1467       O  0.31974122  0.54645991  0.98727359    -0.75500
O1468       O  0.30153401  0.53028363  0.07122009    -0.81300
O1469       O  0.15332077  0.00023861  0.02539473    -0.83100
O1470       O  0.19647675  0.96821411  0.92887975    -0.81400
C1471       C  0.31706253  0.55219371  0.00686748     0.86800
O1472       O  0.25935211  0.50204916  0.96010453    -0.88500
O1473       O  0.27711538  0.96918736  0.99463239    -0.88600
O1474       O  0.23478705  0.93211915  0.98106288    -0.75700
Mg1475     Mg  0.27805906  0.54280473  0.04439554     1.58000
O1476       O  0.32753160  0.51014019  0.05660782    -0.83000
H1477       H  0.23333782  0.56978206  0.99784080    -0.06800
O1478       O  0.19646751  0.96654703  0.98081276    -0.88300
H1479       H  0.16674593  0.92316316  0.98835816    -0.06600
H1480       H  0.28029255  0.54110296  0.94350380    -0.06800
C1481       C  0.17942840  0.94670520  0.99366929     0.86800
C1482       C  0.23659821  0.55393705  0.00760842     0.87400
C1483       C  0.26090736  0.52567222  0.95318686     0.87400
H1484       H  0.26041123  0.92566889  0.00343091    -0.06800
O1485       O  0.25472343  0.96474719  0.04328976    -0.75800
Mg1486     Mg  0.21792294  0.95403830  0.95602528     1.58000
H1487       H  0.21555782  0.95823682  0.05715914    -0.06800
C1488       C  0.13864177  0.99570789  0.00776156     0.92400
O1489       O  0.17050707  0.98870570  0.94303802    -0.83000
C1490       C  0.17583135  0.97553678  0.92746547     0.92500
O1491       O  0.25413573  0.55252382  0.07110969    -0.83000
Mg1492     Mg  0.30032951  0.98637509  0.02497389     1.58200
O1493       O  0.14884870  0.99150039  0.99004664    -0.81300
O1494       O  0.34501168  0.50115234  0.97406167    -0.83000
O1495       O  0.28309723  0.80473928  0.99551477    -0.88600
C1496       C  0.26495982  0.73429976  0.95445477     0.87400
Mg1497     Mg  0.30411222  0.80842681  0.02620230     1.58100
O1498       O  0.20130797  0.72884914  0.98160067    -0.88300
O1499       O  0.24143172  0.80106456  0.98212851    -0.75700
C1500       C  0.22708684  0.67337435  0.07115906     0.92500
O1501       O  0.32290732  0.77118817  0.98844037    -0.75500
O1502       O  0.25397678  0.69588594  0.06965426    -0.83000
Mg1503     Mg  0.30580641  0.79781595  0.96835794     1.58000
C1504       C  0.13739931  0.64470265  0.00771471     0.92400
O1505       O  0.29509701  0.82597612  0.94442362    -0.81300
H1506       H  0.17331000  0.74510925  0.98796233    -0.06600
C1507       C  0.23663257  0.67921877  0.00681517     0.87300
O1508       O  0.25792053  0.78617404  0.04359772    -0.75800
O1509       O  0.26369771  0.75659904  0.96138981    -0.88500
O1510       O  0.14944563  0.65766680  0.98989769    -0.81300
C1511       C  0.18217567  0.70076821  0.92792331     0.92500
C1512       C  0.27498105  0.81975298  0.92984699     0.92400
Mg1513     Mg  0.19670482  0.69657088  0.03326898     1.58000
O1514       O  0.20683029  0.66793086  0.05686292    -0.81300
O1515       O  0.18066393  0.72414998  0.01328722    -0.75500
O1516       O  0.20529840  0.72735167  0.92980710    -0.81300
O1517       O  0.34978639  0.84146464  0.97641240    -0.83100
O1518       O  0.30026187  0.76552541  0.07121952    -0.81400
C1519       C  0.18445260  0.73300515  0.99381768     0.86800
O1520       O  0.23923706  0.73694037  0.04045457    -0.88500
O1521       O  0.21827187  0.68852245  0.00590029    -0.88600
O1522       O  0.26025365  0.69224886  0.01867455    -0.75700
Mg1523     Mg  0.22459689  0.76224307  0.95716330     1.58000
O1524       O  0.17384643  0.68189255  0.94339712    -0.83000
H1525       H  0.26815708  0.83311086  0.00426896    -0.06800
O1526       O  0.30123307  0.76502650  0.01985324    -0.88300
H1527       H  0.33059085  0.75036543  0.01370454    -0.06600
H1528       H  0.21809831  0.75471198  0.05731971    -0.06800
C1529       C  0.31887525  0.76187822  0.00779883     0.86800
C1530       C  0.26474635  0.81404257  0.99429412     0.87400
C1531       C  0.23765588  0.75887601  0.04773474     0.87400
H1532       H  0.23300263  0.66014346  0.99675893    -0.06800
O1533       O  0.24384647  0.70713116  0.95817173    -0.75800
Mg1534     Mg  0.27824830  0.73079840  0.04390824     1.58000
H1535       H  0.28470357  0.73798032  0.94530662    -0.06800
C1536       C  0.36377806  0.85075422  0.99438022     0.92400
O1537       O  0.32692253  0.81255884  0.05835324    -0.83000
C1538       C  0.32050486  0.79343502  0.07353190     0.92500
O1539       O  0.24857333  0.79654246  0.93125818    -0.83000
Mg1540     Mg  0.19717385  0.68520577  0.97533135     1.58200
O1541       O  0.35180992  0.83697427  0.01194881    -0.81300
O1542       O  0.15185445  0.65390568  0.02549736    -0.83000
O1543       O  0.02100484  0.71563316  0.99412104    -0.88600
C1544       C  0.47315495  0.73474476  0.95300759     0.87400
Mg1545     Mg  0.00431894  0.69530245  0.02549775     1.58100
O1546       O  0.03147219  0.79784705  0.97999959    -0.88300
O1547       O  0.06031727  0.75420396  0.97926465    -0.75700
C1548       C  0.45655336  0.77984890  0.07331662     0.92500
O1549       O  0.45253227  0.68070256  0.98884318    -0.75500
O1550       O  0.45114069  0.75231646  0.07285132    -0.83000
Mg1551     Mg  0.49455223  0.69408242  0.96723953     1.58000
C1552       C  0.01261139  0.86397517  0.00623265     0.92400
O1553       O  0.02727120  0.70055184  0.94145708    -0.81300
H1554       H  0.07580968  0.82374332  0.98710331    -0.06600
C1555       C  0.44917056  0.76600463  0.00871319     0.87300
O1556       O  0.03090226  0.74184335  0.04262173    -0.75800
O1557       O  0.49727355  0.73632918  0.95877597    -0.88500
O1558       O  0.01546477  0.85177780  0.98904508    -0.81300
C1559       C  0.02244360  0.81975423  0.92679079     0.92500
C1560       C  0.04366553  0.71992957  0.92706721     0.92400
Mg1561     Mg  0.00566424  0.80571024  0.03365027     1.58000
O1562       O  0.47151622  0.79865980  0.05828070    -0.81300
O1563       O  0.04748526  0.81825516  0.01205069    -0.75500
O1564       O  0.03010782  0.79927526  0.92804566    -0.81300
O1565       O  0.49283758  0.64990855  0.97593997    -0.83100
O1566       O  0.47194925  0.70146722  0.07301831    -0.81400
C1567       C  0.05250248  0.81377652  0.99262213     0.86800
O1568       O  0.00197958  0.76263899  0.04222665    -0.88500
O1569       O  0.47692382  0.78248539  0.00627682    -0.88600
O1570       O  0.43845651  0.74380582  0.02179291    -0.75700
Mg1571     Mg  0.04065633  0.77388458  0.95470445     1.58000
O1572       O  0.00958534  0.82518807  0.94246344    -0.83000
H1573       H  0.06379912  0.72690160  0.00172479    -0.06800
O1574       O  0.46857909  0.70121235  0.02085368    -0.88300
H1575       H  0.42425519  0.67464235  0.01395507    -0.06600
H1576       H  0.04253521  0.78234217  0.05708258    -0.06800
C1577       C  0.44754057  0.68500014  0.00832082     0.86800
C1578       C  0.04886744  0.73170805  0.99208464     0.87400
C1579       C  0.02556640  0.76301434  0.04793013     0.87400
H1580       H  0.43369694  0.77018694  0.99920461    -0.06800
O1581       O  0.46663383  0.75510024  0.95821654    -0.75800
Mg1582     Mg  0.45960258  0.72549379  0.04622984     1.58000
H1583       H  0.45666794  0.71491389  0.94402224    -0.06800
C1584       C  0.48831411  0.63602571  0.99381023     0.92400
O1585       O  0.49101238  0.67478012  0.05776142    -0.83000
C1586       C  0.47880304  0.68034530  0.07376771     0.92500
O1587       O  0.04966766  0.74762051  0.92805613    -0.83000
Mg1588     Mg  0.49247072  0.80199479  0.97467549     1.58200
O1589       O  0.48703733  0.64825007  0.01152066    -0.81300
O1590       O  0.00752241  0.85038320  0.02434879    -0.83000
O1591       O  0.13987931  0.52338167  0.67175017    -0.88600
C1592       C  0.19598541  0.59775076  0.70866607     0.87400
Mg1593     Mg  0.15368986  0.51799863  0.63999099     1.58100
O1594       O  0.13359063  0.59986772  0.68504286    -0.88300
O1595       O  0.10321375  0.52758760  0.68692431    -0.75700
C1596       C  0.20100929  0.64901271  0.58996440     0.92500
O1597       O  0.21328790  0.55949761  0.67347311    -0.75500
O1598       O  0.20559253  0.62649206  0.59070767    -0.83000
Mg1599     Mg  0.17314098  0.53340100  0.69700793     1.58000
C1600       C  0.14990332  0.68259614  0.65711824     0.92400
O1601       O  0.13833763  0.50686752  0.72427683    -0.81300
H1602       H  0.08860621  0.58315062  0.68230308    -0.06600
C1603       C  0.21389060  0.64824140  0.65338690     0.87300
O1604       O  0.12535472  0.53705100  0.62429367    -0.75800
O1605       O  0.17178172  0.57449534  0.70385149    -0.88500
O1606       O  0.15082390  0.67079697  0.67507915    -0.81300
C1607       C  0.14858096  0.63225790  0.73757870     0.92500
C1608       C  0.12386621  0.51285918  0.73857327     0.92400
Mg1609     Mg  0.15269216  0.62771640  0.63158551     1.58000
O1610       O  0.18747744  0.65445023  0.60518805    -0.81300
O1611       O  0.11252581  0.60189383  0.65483259    -0.75500
O1612       O  0.14434112  0.60528302  0.73625346    -0.81300
O1613       O  0.16935925  0.98789699  0.68902521    -0.83100
O1614       O  0.18250969  0.55641991  0.59141039    -0.81400
C1615       C  0.11070995  0.59470711  0.67459788     0.86800
O1616       O  0.15434833  0.58682787  0.62451511    -0.88500
O1617       O  0.18645602  0.63835252  0.65659278    -0.88600
O1618       O  0.22301638  0.63471879  0.64069922    -0.75700
Mg1619     Mg  0.12709352  0.56832370  0.71019576     1.58000
O1620       O  0.15774112  0.65009421  0.72144238    -0.83000
H1621       H  0.09587279  0.49374076  0.66581532    -0.06800
O1622       O  0.19308391  0.56257461  0.64306171    -0.88300
H1623       H  0.23802229  0.57943104  0.64647512    -0.06600
H1624       H  0.11254896  0.56587358  0.61143753    -0.06800
C1625       C  0.21568702  0.56756125  0.65382871     0.86800
C1626       C  0.11241949  0.51378444  0.67458261     0.87400
C1627       C  0.13021439  0.56356922  0.61956885     0.87400
H1628       H  0.23050513  0.66836893  0.66204420    -0.06800
O1629       O  0.20086085  0.62426904  0.70391581    -0.75800
Mg1630     Mg  0.19922901  0.59376940  0.61753178     1.58000
H1631       H  0.21369419  0.59544813  0.71673322    -0.06800
C1632       C  0.17370032  0.97841979  0.67105848     0.92400
O1633       O  0.16924240  0.51207188  0.60682192    -0.83000
C1634       C  0.17843144  0.52944738  0.59045838     0.92500
O1635       O  0.11969903  0.53549691  0.73674134    -0.83000
Mg1636     Mg  0.17326401  0.64429058  0.68830178     1.58200
O1637       O  0.17812160  0.49378771  0.65321237    -0.81300
O1638       O  0.15193128  0.67127602  0.63924413    -0.83000
C1639       C  0.07954874  0.67578483  0.85128973     0.02000
C1640       C  0.10849180  0.67795076  0.85106782     0.02000
C1641       C  0.11912854  0.67108923  0.83227044    -0.18500
C1642       C  0.10110229  0.66070354  0.81369317     0.02000
C1643       C  0.07105814  0.65611996  0.81392333     0.02000
C1644       C  0.06086395  0.66444117  0.83268248    -0.18500
H1645       H  0.03850707  0.66241088  0.83268408     0.04000
H1646       H  0.14154065  0.67315944  0.83227151     0.04000
C1647       C  0.09332951  0.93131100  0.85379454     0.02000
C1648       C  0.06495595  0.90339202  0.85378572     0.02000
C1649       C  0.04631196  0.89525068  0.83521614    -0.18500
C1650       C  0.05553651  0.91385951  0.81682494     0.02000
C1651       C  0.08391197  0.94110746  0.81673284     0.02000
C1652       C  0.10245038  0.94963191  0.83517632    -0.18500
H1653       H  0.12413834  0.97081808  0.83506912     0.04000
H1654       H  0.02472447  0.87397110  0.83489419     0.04000
O1655       O  0.47199592  0.61419899  0.67349476    -0.88600
C1656       C  0.40368222  0.59473375  0.71645430     0.87400
Mg1657     Mg  0.47475365  0.63570019  0.64305384     1.58100
O1658       O  0.39791432  0.53144619  0.68786519    -0.88300
O1659       O  0.47069225  0.57357354  0.68673219    -0.75700
C1660       C  0.33779305  0.55757215  0.59934155     0.92500
O1661       O  0.43723516  0.65191605  0.68175500    -0.75500
O1662       O  0.36086683  0.58432782  0.59952785    -0.83000
Mg1663     Mg  0.46577851  0.63630111  0.70121509     1.58000
C1664       C  0.31084175  0.96876003  0.66075102     0.92400
O1665       O  0.49549976  0.62650713  0.72404699    -0.81300
H1666       H  0.41409276  0.50384836  0.67983410    -0.06600
C1667       C  0.34751220  0.56764443  0.66328722     0.87300
O1668       O  0.45324711  0.58956225  0.62532824    -0.75800
O1669       O  0.42580422  0.59369828  0.70907222    -0.88500
O1670       O  0.32522639  0.97943173  0.67846943    -0.81300
C1671       C  0.37036009  0.51053778  0.74109688     0.92500
C1672       C  0.49200651  0.60727160  0.73860261     0.92400
Mg1673     Mg  0.36385704  0.52805469  0.63620645     1.58000
O1674       O  0.33390703  0.53838353  0.61404432    -0.81300
O1675       O  0.39217715  0.51191919  0.65545649    -0.75500
O1676       O  0.39787224  0.53221473  0.73962230    -0.81300
O1677       O  0.00833711  0.67950999  0.69152731    -0.83100
O1678       O  0.43148175  0.63195416  0.59746728    -0.81400
C1679       C  0.40173112  0.51511873  0.67480863     0.86800
O1680       O  0.40397537  0.57042255  0.62839546    -0.88500
O1681       O  0.35747513  0.54980533  0.66410434    -0.88600
O1682       O  0.35924750  0.59066883  0.65090086    -0.75700
Mg1683     Mg  0.43269690  0.55502453  0.71231349     1.58000
O1684       O  0.35124734  0.50429881  0.72584504    -0.83000
H1685       H  0.50122728  0.60067739  0.66411870    -0.06800
O1686       O  0.43127421  0.63195351  0.64948496    -0.88300
H1687       H  0.41496355  0.65947918  0.65737675    -0.06600
H1688       H  0.42197431  0.54944467  0.61154896    -0.06800
C1689       C  0.42747083  0.64838143  0.66244878     0.86800
C1690       C  0.48232699  0.59666867  0.67440619     0.87400
C1691       C  0.42600102  0.56903223  0.62115472     0.87400
H1692       H  0.32881736  0.56394189  0.67368760    -0.06800
O1693       O  0.37651788  0.57393664  0.71236250    -0.75800
Mg1694     Mg  0.39699799  0.60905365  0.62516901     1.58000
H1695       H  0.40752484  0.61414290  0.72620152    -0.06800
C1696       C  0.01723309  0.69310170  0.67345896     0.92400
O1697       O  0.47811420  0.65895204  0.61116673    -0.83000
C1698       C  0.45927549  0.65303625  0.59580810     0.92500
O1699       O  0.46915500  0.58021875  0.73841136    -0.83000
Mg1700     Mg  0.35418887  0.52782304  0.69435953     1.58200
O1701       O  0.50137409  0.68338466  0.65770196    -0.81300
O1702       O  0.31979223  0.98408735  0.64337464    -0.83000
O1703       O  0.35555700  0.80326089  0.66153546    -0.88600
C1704       C  0.42376886  0.85471670  0.61843055     0.87400
Mg1705     Mg  0.35065835  0.82067555  0.69199826     1.58100
O1706       O  0.43233538  0.79944463  0.64727968    -0.88300
O1707       O  0.35965290  0.76547180  0.64814416    -0.75700
C1708       C  0.48667765  0.88471442  0.73677834     0.92500
O1709       O  0.38737759  0.87586579  0.65324385    -0.75500
O1710       O  0.46263745  0.88664123  0.73594713    -0.83000
Mg1711     Mg  0.36125061  0.83130634  0.63371546     1.58000
C1712       C  0.01835683  0.82621582  0.67292196     0.92400
O1713       O  0.33316224  0.79097798  0.61108469    -0.81300
H1714       H  0.41883360  0.75619129  0.65519763    -0.06600
C1715       C  0.47846844  0.88650416  0.67182569     0.87300
O1716       O  0.37519053  0.79910079  0.70986366    -0.75800
O1717       O  0.40268528  0.83118511  0.62626026    -0.88500
O1718       O  0.50330713  0.82201519  0.65559283    -0.81300
C1719       C  0.46089204  0.80646362  0.59374911     0.92500
C1720       C  0.33910375  0.77761511  0.59598700     0.92400
Mg1721     Mg  0.46620019  0.83193318  0.69871361     1.58000
O1722       O  0.49396957  0.87271933  0.72144677    -0.81300
O1723       O  0.44008269  0.78689548  0.67943916    -0.75500
O1724       O  0.43290517  0.79896345  0.59552706    -0.81300
O1725       O  0.31714752  0.83075272  0.64111060    -0.83100
O1726       O  0.39281161  0.86114016  0.73767842    -0.81400
C1727       C  0.43004593  0.77986860  0.66022367     0.86800
O1728       O  0.42401610  0.83083851  0.70639990    -0.88500
O1729       O  0.47022166  0.85903495  0.67085822    -0.88600
O1730       O  0.46549637  0.89646032  0.68435796    -0.75700
Mg1731     Mg  0.39793194  0.78646769  0.62284042     1.58000
O1732       O  0.47986193  0.82046677  0.60890071    -0.83000
H1733       H  0.32811371  0.76001296  0.67061017    -0.06800
O1734       O  0.39287944  0.86233489  0.68567367    -0.88300
H1735       H  0.40717332  0.90583672  0.67806055    -0.06600
H1736       H  0.40787949  0.79227366  0.72340350    -0.06800
C1737       C  0.39601311  0.88227279  0.67276769     0.86800
C1738       C  0.34675980  0.77569657  0.66047139     0.87400
C1739       C  0.40281239  0.80700831  0.71377338     0.87400
H1740       H  0.49675749  0.90234081  0.66150681    -0.06800
O1741       O  0.45143821  0.86280003  0.62226728    -0.75800
Mg1742     Mg  0.42750977  0.87493788  0.70997285     1.58000
H1743       H  0.41853790  0.86911123  0.60854136    -0.06800
C1744       C  0.30621576  0.83430853  0.65864936     0.92400
O1745       O  0.34604179  0.84012473  0.72399508    -0.83000
C1746       C  0.36482748  0.85363302  0.73936081     0.92500
O1747       O  0.36262587  0.77467556  0.59661129    -0.83000
Mg1748     Mg  0.47479592  0.84053212  0.64054981     1.58200
O1749       O  0.31909161  0.83622071  0.67678076    -0.81300
O1750       O  0.00991204  0.83242412  0.69067734    -0.83000
C1751       C  0.31372706  0.89141483  0.85175875     0.02000
C1752       C  0.31074734  0.91760941  0.85063991     0.02000
C1753       C  0.31967121  0.93539644  0.83192602    -0.18500
C1754       C  0.33078856  0.92695684  0.81395435     0.02000
C1755       C  0.33328502  0.90021217  0.81499743     0.02000
C1756       C  0.32473689  0.88280087  0.83397208    -0.18500
H1757       H  0.32609012  0.86207757  0.83477608     0.04000
H1758       H  0.31794088  0.95592134  0.83135702     0.04000
C1759       C  0.00497185  0.73548407  0.48107711     0.02000
C1760       C  0.00782116  0.76481069  0.48158844     0.02000
C1761       C  0.00114970  0.77500470  0.50087112    -0.18500
C1762       C  0.49401431  0.75852798  0.51958298     0.02000
C1763       C  0.48991778  0.72865038  0.51896318     0.02000
C1764       C  0.99579783  0.71734099  0.49964595    -0.18500
H1765       H  0.99454129  0.69527628  0.49924631     0.04000
H1766       H  0.00263973  0.79716729  0.50130572     0.04000
C1767       C  0.23379117  0.74300285  0.47955771     0.02000
C1768       C  0.26258771  0.76968520  0.48130633     0.02000
C1769       C  0.28064884  0.77464335  0.49975697    -0.18500
C1770       C  0.27001883  0.75337159  0.51665532     0.02000
C1771       C  0.24114100  0.72661906  0.51477949     0.02000
C1772       C  0.22323530  0.72171307  0.49633233    -0.18500
H1773       H  0.20104786  0.70123902  0.49500217     0.04000
H1774       H  0.30269815  0.79527647  0.50110478     0.04000
C1775       C  0.23626071  0.98522036  0.48110257     0.02000
C1776       C  0.26767925  0.99575365  0.48420687     0.02000
C1777       C  0.28127273  0.00875889  0.50411327    -0.18500
C1778       C  0.26422378  0.50876194  0.52235291     0.02000
C1779       C  0.23340925  0.50057185  0.51898021     0.02000
C1780       C  0.21947320  0.98912183  0.49765190    -0.18500
H1781       H  0.19556179  0.98173766  0.49507833     0.04000
H1782       H  0.30509788  0.01584857  0.50678607     0.04000
C1783       C  0.00090331  0.97246272  0.99969032     0.02000
C1784       C  0.02717661  0.00166942  0.00109322     0.02000
C1785       C  0.02519176  0.52881686  0.00081774     0.02000
C1786       C  0.99620160  0.52600437  0.99753343     0.02000
C1787       C  0.47008902  0.99626089  0.99664806     0.02000
C1788       C  0.47287198  0.96987116  0.99828293     0.02000
C1789       C  0.36287346  0.66726404  0.33686490     0.02000
C1790       C  0.33374368  0.64063211  0.33878443     0.02000
C1791       C  0.30738070  0.64327638  0.34147630     0.02000
C1792       C  0.31016850  0.67245882  0.34240182     0.02000
C1793       C  0.33927963  0.69904848  0.34141053     0.02000
C1794       C  0.36560618  0.69647715  0.33836370     0.02000
C1795       C  0.18894005  0.82892732  0.65826987     0.02000
C1796       C  0.19148153  0.85804789  0.66009034     0.02000
C1797       C  0.16511658  0.86025979  0.66396130     0.02000
C1798       C  0.13626730  0.83357196  0.66581672     0.02000
C1799       C  0.13374227  0.80459359  0.66373538     0.02000
C1800       C  0.16000018  0.80216091  0.66007285     0.02000
C1801       C  0.06553388  0.83070654  0.69011574    -0.26600
C1802       C  0.04880831  0.82831685  0.67128608    -0.14700
C1803       C  0.06257520  0.83036066  0.65095377     0.36000
C1804       C  0.09190412  0.83418693  0.64989395    -0.26000
C1805       C  0.10795575  0.83533649  0.66857835    -0.15300
C1806       C  0.09473558  0.83380586  0.68903588     0.37100
N1807       N  0.11009946  0.83525506  0.70894267    -0.89500
H1808       H  0.05575603  0.82979796  0.70585318     0.18200
H1809       H  0.10188441  0.83531212  0.63420719     0.18200
N1810       N  0.04710540  0.82882425  0.63118088    -0.88500
H1811       H  0.09704896  0.81451108  0.71694856     0.35500
H1812       H  0.13147302  0.83749149  0.70619907     0.40600
H1813       H  0.04514096  0.81045892  0.62206377     0.40300
H1814       H  0.06060345  0.84889463  0.62253647     0.35100
C1815       C  0.23449659  0.83474914  0.67668054    -0.26600
C1816       C  0.21741662  0.82722707  0.65762637    -0.14700
C1817       C  0.22969738  0.82242914  0.63845214     0.36000
C1818       C  0.25898111  0.82566314  0.63901166    -0.26000
C1819       C  0.27649819  0.83390716  0.65817943    -0.15300
C1820       C  0.26386888  0.83881924  0.67706037     0.37100
N1821       N  0.28070667  0.84824702  0.69681941    -0.89500
H1822       H  0.22533700  0.83873994  0.69137674     0.18200
H1823       H  0.26795327  0.82152394  0.62429945     0.18200
N1824       N  0.21362242  0.81493940  0.61817590    -0.88500
H1825       H  0.26775852  0.83203438  0.70850938     0.35500
H1826       H  0.28271583  0.86910943  0.70143273     0.40600
H1827       H  0.19249964  0.81371980  0.61961486     0.40300
H1828       H  0.20920818  0.79314140  0.61366212     0.35100
C1829       C  0.32362718  0.88058395  0.77743747    -0.26600
C1830       C  0.34182785  0.88823859  0.79595284    -0.14700
C1831       C  0.36659733  0.88280475  0.79647244     0.36000
C1832       C  0.37289372  0.87026413  0.77814902    -0.26000
C1833       C  0.35489025  0.86297757  0.75929213    -0.15300
C1834       C  0.32984911  0.86827821  0.75925724     0.37100
N1835       N  0.31065550  0.86228126  0.74084078    -0.89500
H1836       H  0.30423325  0.88418494  0.77709458     0.18200
H1837       H  0.39226640  0.86663849  0.77850159     0.18200
N1838       N  0.38540778  0.89037014  0.81548265    -0.88500
H1839       H  0.30004253  0.83893676  0.73738625     0.35500
H1840       H  0.32420346  0.87498831  0.72785520     0.40600
H1841       H  0.39624017  0.91405036  0.81762280     0.40300
H1842       H  0.40265232  0.88495339  0.81327082     0.35100
C1843       C  0.27620413  0.76340702  0.55614190    -0.26600
C1844       C  0.28831694  0.75978848  0.53673650    -0.14700
C1845       C  0.31657868  0.76064110  0.53693979     0.36000
C1846       C  0.33189286  0.76460759  0.55671948    -0.26000
C1847       C  0.31968328  0.76809653  0.57627062    -0.15300
C1848       C  0.29122235  0.76701133  0.57584659     0.37100
N1849       N  0.27738299  0.76961144  0.59533012    -0.89500
H1850       H  0.25475696  0.76333530  0.55601216     0.18200
H1851       H  0.35400293  0.76607377  0.55670444     0.18200
N1852       N  0.32994477  0.75822537  0.51706808    -0.88500
H1853       H  0.25593605  0.74998962  0.59677731     0.35500
H1854       H  0.27410823  0.78838215  0.59383229     0.40600
H1855       H  0.31570566  0.73656536  0.51051426     0.40300
H1856       H  0.35098526  0.75966817  0.52001277     0.35100
C1857       C  0.44773751  0.77222356  0.56162473    -0.26600
C1858       C  0.47049695  0.79614871  0.57412784    -0.14700
C1859       C  0.50152331  0.80747929  0.56861315     0.36000
C1860       C  0.50880876  0.79471285  0.55086782    -0.26000
C1861       C  0.48587953  0.77060459  0.53878863    -0.15300
C1862       C  0.45518397  0.75940755  0.54420847     0.37100
N1863       N  0.43143123  0.73515672  0.53184523    -0.89500
H1864       H  0.42384762  0.76281104  0.56559788     0.18200
H1865       H  0.03016938  0.80106390  0.54660498     0.18200
N1866       N  0.02324943  0.82899416  0.58130961    -0.88500
H1867       H  0.41734286  0.74295771  0.52562022     0.35500
H1868       H  0.41840689  0.71706278  0.54232125     0.40600
H1869       H  0.02155951  0.84860822  0.57916330     0.40300
H1870       H  0.04464525  0.83408646  0.57542474     0.35100
C1871       C  0.26735629  0.92537398  0.64087244    -0.26600
C1872       C  0.28164711  0.93875870  0.66067308    -0.14700
C1873       C  0.26596815  0.92499521  0.68004446     0.36000
C1874       C  0.23656311  0.89933392  0.67921510    -0.26000
C1875       C  0.22229463  0.88627488  0.65949603    -0.15300
C1876       C  0.23814707  0.89925077  0.64001611     0.37100
N1877       N  0.22521151  0.88716148  0.61912317    -0.89500
H1878       H  0.27875922  0.93550856  0.62580086     0.18200
H1879       H  0.22478428  0.88928162  0.69420024     0.18200
N1880       N  0.27936411  0.93726874  0.70070925    -0.88500
H1881       H  0.23906691  0.87993910  0.61166036     0.35500
H1882       H  0.20353694  0.86796961  0.62034561     0.40600
H1883       H  0.26491859  0.94298953  0.70902605     0.40300
H1884       H  0.28052477  0.92016216  0.70939362     0.35100
C1885       C  0.05520011  0.73676524  0.65131434    -0.26600
C1886       C  0.04567642  0.72346843  0.67189199    -0.14700
C1887       C  0.06525991  0.73773471  0.68972847     0.36000
C1888       C  0.09374363  0.76408476  0.68657764    -0.26000
C1889       C  0.10331821  0.77660327  0.66596048    -0.15300
C1890       C  0.08366958  0.76286739  0.64808058     0.37100
N1891       N  0.09205332  0.77405447  0.62637504    -0.89500
H1892       H  0.04082353  0.72631081  0.63729710     0.18200
H1893       H  0.10872055  0.77466937  0.70032237     0.18200
N1894       N  0.05680289  0.72534176  0.71100903    -0.88500
H1895       H  0.07662890  0.78064786  0.62094682     0.35500
H1896       H  0.11374333  0.79337188  0.62569496     0.40600
H1897       H  0.07349872  0.72063068  0.71664284     0.40300
H1898       H  0.05698105  0.74212205  0.72103840     0.35100
C1899       C  0.37101296  0.96123616  0.78809979    -0.26600
C1900       C  0.34050434  0.94711871  0.79468930    -0.14700
C1901       C  0.31993161  0.95342294  0.78354891     0.36000
C1902       C  0.33045063  0.97406939  0.76617668    -0.26000
C1903       C  0.36118619  0.98872702  0.75971866    -0.15300
C1904       C  0.38157615  0.98181849  0.77086591     0.37100
N1905       N  0.41332595  0.50087470  0.76869648    -0.89500
H1906       H  0.38688771  0.95643067  0.79659306     0.18200
H1907       H  0.31451652  0.97868985  0.75760026     0.18200
N1908       N  0.28840159  0.93866653  0.78986513    -0.88500
H1909       H  0.42416441  0.01814058  0.76692483     0.35500
H1910       H  0.41677588  0.49664864  0.75269478     0.40600
H1911       H  0.27898709  0.91522590  0.78714627     0.40300
H1912       H  0.27627541  0.94578816  0.78009193     0.35100
C1913       C  0.29954754  0.55316611  0.54501020    -0.26600
C1914       C  0.27988019  0.52160081  0.54317637    -0.14700
C1915       C  0.27740374  0.50241465  0.56040200     0.36000
C1916       C  0.29492469  0.51526456  0.57912618    -0.26000
C1917       C  0.31597022  0.54684012  0.58076916    -0.15300
C1918       C  0.31768851  0.56601429  0.56342889     0.37100
N1919       N  0.33793900  0.59839560  0.56363684    -0.89500
H1920       H  0.30173391  0.56785094  0.53159743     0.18200
H1921       H  0.29321108  0.50006137  0.59202880     0.18200
N1922       N  0.27705751  0.97415279  0.54797340    -0.88500
H1923       H  0.36047693  0.60292276  0.56371748     0.35500
H1924       H  0.33375423  0.60757484  0.57750964     0.40600
H1925       H  0.25321530  0.96161193  0.54791559     0.40300
H1926       H  0.28434852  0.96353242  0.55904255     0.35100
C1927       C  0.50028042  0.72020494  0.55694781    -0.26600
C1928       C  0.48177719  0.70900532  0.53851061    -0.14700
C1929       C  0.45690890  0.67878456  0.53851430     0.36000
C1930       C  0.45085003  0.66069369  0.55710527    -0.26000
C1931       C  0.46902961  0.67203551  0.57582789    -0.15300
C1932       C  0.49421976  0.70237946  0.57550906     0.37100
N1933       N  0.51366578  0.71628750  0.59385552    -0.89500
H1934       H  0.51982774  0.74312089  0.55691274     0.18200
H1935       H  0.43147902  0.63767485  0.55703542     0.18200
N1936       N  0.43776594  0.66664429  0.51970305    -0.88500
H1937       H  0.52449750  0.70391489  0.59772627     0.35500
H1938       H  0.50041662  0.71607713  0.60687807     0.40600
H1939       H  0.42686693  0.67933700  0.51726584     0.40300
H1940       H  0.42057589  0.64407028  0.52229337     0.35100
C1941       C  0.01661950  0.91595836  0.79344041    -0.26600
C1942       C  0.03615978  0.90429996  0.79720459    -0.14700
C1943       C  0.04022144  0.88713422  0.78103290     0.36000
C1944       C  0.02479831  0.88190389  0.76126631    -0.26000
C1945       C  0.00516742  0.89360138  0.75724156    -0.15300
C1946       C  0.00134307  0.91105890  0.77359562     0.37100
N1947       N  0.98234855  0.92422562  0.77011893    -0.89500
H1948       H  0.01392633  0.92972061  0.80575824     0.18200
H1949       H  0.02782889  0.86805923  0.74920607     0.18200
N1950       N  0.06015120  0.87509019  0.78465131    -0.88500
H1951       H  0.99577288  0.94789045  0.77211965     0.35500
H1952       H  0.96545537  0.91597324  0.78201721     0.40600
H1953       H  0.07685275  0.88355989  0.77262584     0.40300
H1954       H  0.04738484  0.85134596  0.78288219     0.35100
C1955       C  0.05947293  0.65743964  0.77474782    -0.26600
C1956       C  0.05039903  0.64268034  0.79475340    -0.14700
C1957       C  0.02253441  0.61475521  0.79599913     0.36000
C1958       C  0.50452736  0.60328262  0.77724485    -0.26000
C1959       C  0.01370483  0.61717029  0.75709655    -0.15300
C1960       C  0.04216681  0.64463002  0.75587016     0.37100
N1961       N  0.05352646  0.65956058  0.73547026    -0.89500
H1962       H  0.08026802  0.67928407  0.77382703     0.18200
H1963       H  0.48252591  0.58263825  0.77854236     0.18200
N1964       N  0.51247430  0.60017593  0.81636005    -0.88500
H1965       H  0.07479100  0.67930116  0.73742233     0.35500
H1966       H  0.05720989  0.64479057  0.72570029     0.40600
H1967       H  0.02790488  0.59280780  0.82140877     0.40300
H1968       H  0.49121674  0.58034619  0.81466624     0.35100
C1969       C  0.15731873  0.72864462  0.67711745    -0.26600
C1970       C  0.14939086  0.71189130  0.65760534    -0.14700
C1971       C  0.14405484  0.72506501  0.63906839     0.36000
C1972       C  0.14788394  0.75445664  0.64033587    -0.26000
C1973       C  0.15704584  0.77139687  0.65960157    -0.15300
C1974       C  0.16119646  0.75803974  0.67836953     0.37100
N1975       N  0.16892857  0.77329179  0.69901449    -0.89500
H1976       H  0.16133271  0.71920691  0.69162578     0.18200
H1977       H  0.14380104  0.76425917  0.62606062     0.18200
N1978       N  0.13447938  0.70931143  0.61879266    -0.88500
H1979       H  0.19059224  0.77719858  0.70329953     0.35500
H1980       H  0.17034642  0.79458824  0.69841669     0.40600
H1981       H  0.11486004  0.68813849  0.62126287     0.40300
H1982       H  0.15189753  0.70606883  0.61273410     0.35100
C1983       C  0.17221054  0.90443942  0.68600160    -0.26600
C1984       C  0.16780669  0.89072255  0.66558758    -0.14700
C1985       C  0.16705600  0.90650432  0.64705464     0.36000
C1986       C  0.17102000  0.93574300  0.64940509    -0.26000
C1987       C  0.17464067  0.94949409  0.66985007    -0.15300
C1988       C  0.17552944  0.93364006  0.68841090     0.37100
N1989       N  0.17946957  0.94692446  0.70958069    -0.89500
H1990       H  0.17308769  0.89225568  0.70010485     0.18200
H1991       H  0.16990921  0.94720180  0.63496439     0.18200
N1992       N  0.16196704  0.89359381  0.62565491    -0.88500
H1993       H  0.17877605  0.93187790  0.72142240     0.35500
H1994       H  0.20134320  0.96610152  0.71024366     0.40600
H1995       H  0.15841357  0.87142082  0.62573937     0.40300
H1996       H  0.14175598  0.89185107  0.61979316     0.35100
C1997       C  0.08112970  0.97796363  0.79159361    -0.26600
C1998       C  0.09447599  0.96038214  0.79708060    -0.14700
C1999       C  0.11503412  0.95853900  0.78270943     0.36000
C2000       C  0.12182257  0.97433211  0.76299135    -0.26000
C2001       C  0.10846915  0.99201837  0.75731440    -0.15300
C2002       C  0.08998171  0.49410392  0.77158784     0.37100
N2003       N  0.07327221  0.50855164  0.76431517    -0.89500
H2004       H  0.06503899  0.97893466  0.80264959     0.18200
H2005       H  0.13811171  0.97324606  0.75220720     0.18200
N2006       N  0.12845162  0.94013893  0.78803862    -0.88500
H2007       H  0.05733424  0.50655147  0.77588962     0.35500
H2008       H  0.06077151  0.49659672  0.75065013     0.40600
H2009       H  0.14260112  0.95008443  0.80147531     0.40300
H2010       H  0.14248357  0.94053625  0.77550435     0.35100
C2011       C  0.12446803  0.61904424  0.77393677    -0.26600
C2012       C  0.13995377  0.64151446  0.75805809    -0.14700
C2013       C  0.14349341  0.67086400  0.76119629     0.36000
C2014       C  0.13127634  0.67684320  0.77971503    -0.26000
C2015       C  0.11426167  0.65371528  0.79465933    -0.15300
C2016       C  0.11153000  0.62479567  0.79197230     0.37100
N2017       N  0.09555777  0.60079387  0.80726933    -0.89500
H2018       H  0.12133630  0.59632524  0.77205352     0.18200
H2019       H  0.13431200  0.69945495  0.78212601     0.18200
N2020       N  0.15886924  0.69450876  0.74554207    -0.88500
H2021       H  0.07307891  0.59629347  0.80817503     0.35500
H2022       H  0.10581577  0.60838526  0.82241391     0.40600
H2023       H  0.17705379  0.71320207  0.75324017     0.40300
H2024       H  0.14360372  0.70131787  0.74009867     0.35100
C2025       C  0.20623997  0.54274576  0.55546218    -0.26600
C2026       C  0.18772246  0.51983015  0.57031342    -0.14700
C2027       C  0.18178003  0.48959856  0.56643494     0.36000
C2028       C  0.19534044  0.48362088  0.54874010    -0.26000
C2029       C  0.21610042  0.50722559  0.53538039    -0.15300
C2030       C  0.22068251  0.53698206  0.53829095     0.37100
N2031       N  0.23963654  0.56190535  0.52417890    -0.89500
H2032       H  0.21085530  0.56595659  0.55767493     0.18200
H2033       H  0.20615049  0.96613743  0.55111585     0.18200
N2034       N  0.17952905  0.96912916  0.58634544    -0.88500
H2035       H  0.25797155  0.57830338  0.53329621     0.35500
H2036       H  0.24878500  0.55516106  0.51164806     0.40600
H2037       H  0.15628136  0.96064519  0.58909327     0.40300
H2038       H  0.19203557  0.97982530  0.60029624     0.35100
C2039       C  0.23100169  0.66684983  0.55589583    -0.26600
C2040       C  0.21064479  0.66869214  0.57046067    -0.14700
C2041       C  0.19856625  0.68794686  0.56543357     0.36000
C2042       C  0.20785639  0.70535330  0.54648241    -0.26000
C2043       C  0.22892857  0.70417721  0.53249473    -0.15300
C2044       C  0.24021137  0.68423134  0.53698769     0.37100
N2045       N  0.26052690  0.68060295  0.52265360    -0.89500
H2046       H  0.23996229  0.65176249  0.55917726     0.18200
H2047       H  0.19932732  0.72072377  0.54286650     0.18200
N2048       N  0.17684877  0.68979172  0.57940088    -0.88500
H2049       H  0.28143515  0.68886661  0.53063282     0.35500
H2050       H  0.26452986  0.69327544  0.50854107     0.40600
H2051       H  0.15664744  0.66870069  0.57869599     0.40300
H2052       H  0.17143240  0.70599487  0.57375152     0.35100
C2053       C  0.99025125  0.56489486  0.97686792    -0.26600
C2054       C  0.49302460  0.55335907  0.99764899    -0.14700
C2055       C  0.49106405  0.56788758  0.01663944     0.36000
C2056       C  0.48822918  0.59396831  0.01485009    -0.26000
C2057       C  0.48696625  0.60592645  0.99458407    -0.15300
C2058       C  0.98649644  0.59052612  0.97526905     0.37100
N2059       N  0.98503166  0.60163549  0.95429835    -0.89500
H2060       H  0.99134755  0.55369204  0.96221328     0.18200
H2061       H  0.48774733  0.60533519  0.02959857     0.18200
N2062       N  0.49232893  0.55725257  0.03794234    -0.88500
H2063       H  0.96680791  0.58397035  0.94585280     0.35500
H2064       H  0.00517044  0.60707522  0.94608078     0.40600
H2065       H  0.49451008  0.53780823  0.03748203     0.40300
H2066       H  0.47151076  0.55084707  0.04549916     0.35100
C2067       C  0.51058162  0.90683556  0.02375279    -0.26600
C2068       C  0.01286873  0.89362131  0.00464315    -0.14700
C2069       C  0.01354977  0.90704352  0.98439994     0.36000
C2070       C  0.00854526  0.93190627  0.98332875    -0.26000
C2071       C  0.00404342  0.94476461  0.00201348    -0.15300
C2072       C  0.50686998  0.93256178  0.02372483     0.37100
N2073       N  0.50406467  0.94445880  0.04420809    -0.89500
H2074       H  0.51162965  0.89730553  0.03917149     0.18200
H2075       H  0.00833634  0.94140605  0.96770752     0.18200
N2076       N  0.01889312  0.89541532  0.96473999    -0.88500
H2077       H  0.52437979  0.95175415  0.05278409     0.35500
H2078       H  0.50125138  0.96342187  0.04237724     0.40600
H2079       H  0.03816799  0.91309886  0.95730706     0.40300
H2080       H  0.00018799  0.88900769  0.95449668     0.35100
C2081       C  0.02563969  0.87298005  0.88169585    -0.26600
C2082       C  0.05424594  0.88182793  0.87246519    -0.14700
C2083       C  0.07113976  0.86845737  0.88017916     0.36000
C2084       C  0.05982121  0.84785327  0.89758067    -0.26000
C2085       C  0.03161444  0.83967479  0.90729458    -0.15300
C2086       C  0.01423224  0.85226559  0.89892647     0.37100
N2087       N  0.48366821  0.84315130  0.90849683    -0.89500
H2088       H  0.01207230  0.88243386  0.87550160     0.18200
H2089       H  0.07337211  0.83838961  0.90378180     0.18200
N2090       N  0.09945259  0.87539448  0.87009208    -0.88500
H2091       H  0.48692697  0.85059466  0.92453399     0.35500
H2092       H  0.46951006  0.81941422  0.90800634     0.40600
H2093       H  0.09457754  0.86718261  0.85421419     0.40300
H2094       H  0.10916733  0.86386515  0.87774558     0.35100
C2095       C  0.08542999  0.71796823  0.87577449    -0.26600
C2096       C  0.06963097  0.68668845  0.87051201    -0.14700
C2097       C  0.04596203  0.66639496  0.88430345     0.36000
C2098       C  0.03863227  0.67762262  0.90280592    -0.26000
C2099       C  0.05413111  0.70904571  0.90803200    -0.15300
C2100       C  0.07788085  0.72929381  0.89420320     0.37100
N2101       N  0.09473857  0.76135330  0.89887446    -0.89500
H2102       H  0.10383031  0.73378915  0.86545879     0.18200
H2103       H  0.02017868  0.66153646  0.91296927     0.18200
N2104       N  0.02926177  0.63419674  0.88010556    -0.88500
H2105       H  0.09254305  0.77298945  0.88567943     0.35500
H2106       H  0.11778027  0.76780849  0.90040410     0.40600
H2107       H  0.04468890  0.62618422  0.87925883     0.40300
H2108       H  0.51693888  0.63264302  0.86412209     0.35100
C2109       C  0.06609064  0.57009524  0.02309757    -0.26600
C2110       C  0.05272012  0.55948759  0.00275296    -0.14700
C2111       C  0.06578947  0.57785845  0.98449295     0.36000
C2112       C  0.09228837  0.60633286  0.98676257    -0.26000
C2113       C  0.10665151  0.61678511  0.00699868    -0.15300
C2114       C  0.09292557  0.59845823  0.02541686     0.37100
N2115       N  0.10637502  0.60803366  0.04642000    -0.89500
H2116       H  0.05590697  0.55600055  0.03721725     0.18200
H2117       H  0.10221497  0.61974572  0.97233721     0.18200
N2118       N  0.05278572  0.56728518  0.96348276    -0.88500
H2119       H  0.11113585  0.59151677  0.05238012     0.35500
H2120       H  0.09027633  0.60879138  0.05659703     0.40600
H2121       H  0.06937159  0.56680548  0.95370239     0.40300
H2122       H  0.04788263  0.58338751  0.95691008     0.35100
C2123       C  0.40587557  0.89672698  0.97626202    -0.26600
C2124       C  0.39369687  0.87970848  0.99529095    -0.14700
C2125       C  0.40870723  0.89243378  0.01520167     0.36000
C2126       C  0.43416693  0.92188566  0.01574848    -0.26000
C2127       C  0.44549762  0.93897065  0.99686863    -0.15300
C2128       C  0.43167722  0.92609775  0.97692974     0.37100
N2129       N  0.44389505  0.94276620  0.95733903    -0.89500
H2130       H  0.39502371  0.88756412  0.96079661     0.18200
H2131       H  0.44507423  0.93157051  0.03110350     0.18200
N2132       N  0.39810809  0.87589425  0.03503788    -0.88500
H2133       H  0.42663165  0.94484294  0.94961854     0.35500
H2134       H  0.44980818  0.92984736  0.94731767     0.40600
H2135       H  0.41591219  0.87378042  0.04180411     0.40300
H2136       H  0.39290720  0.88875959  0.04567558     0.35100
C2137       C  0.27606633  0.84614298  0.87204260    -0.26600
C2138       C  0.30470578  0.87255698  0.87145963    -0.14700
C2139       C  0.32309648  0.88240417  0.89010570     0.36000
C2140       C  0.31227385  0.86560167  0.90924506    -0.26000
C2141       C  0.28346731  0.83890073  0.91006468    -0.15300
C2142       C  0.26501278  0.82924881  0.89113039     0.37100
N2143       N  0.23539874  0.80216129  0.89107914    -0.89500
H2144       H  0.26197498  0.83914517  0.85761477     0.18200
H2145       H  0.32672804  0.87318009  0.92347593     0.18200
N2146       N  0.35265867  0.90947651  0.88946921    -0.88500
H2147       H  0.22590375  0.79742758  0.87555536     0.35500
H2148       H  0.22106430  0.80669861  0.90061983     0.40600
H2149       H  0.36618427  0.90533930  0.87877288     0.40300
H2150       H  0.36329335  0.91382637  0.90459359     0.35100
C2151       C  0.11873971  0.66124868  0.88584693    -0.26600
C2152       C  0.12729556  0.68469936  0.87075123    -0.14700
C2153       C  0.15484383  0.71253970  0.87367837     0.36000
C2154       C  0.17274250  0.71632884  0.89193549    -0.26000
C2155       C  0.16389326  0.69321818  0.90761497    -0.15300
C2156       C  0.13648767  0.66507890  0.90416997     0.37100
N2157       N  0.12589868  0.63986966  0.91875609    -0.89500
H2158       H  0.09811399  0.63951578  0.88322961     0.18200
H2159       H  0.19355711  0.73803638  0.89399685     0.18200
N2160       N  0.16538236  0.73741874  0.85862465    -0.88500
H2161       H  0.12110408  0.64621239  0.93368478     0.35500
H2162       H  0.14290774  0.63403814  0.92055402     0.40600
H2163       H  0.15012775  0.73238219  0.84583152     0.40300
H2164       H  0.16629058  0.75598992  0.86681410     0.35100
C2165       C  0.43024405  0.50101787  0.97483158    -0.26600
C2166       C  0.43920998  0.49453432  0.99469009    -0.14700
C2167       C  0.42253875  0.99099357  0.01395130     0.36000
C2168       C  0.39636767  0.99353475  0.01219421    -0.26000
C2169       C  0.38795545  0.50297820  0.99205886    -0.15300
C2170       C  0.40503457  0.50560465  0.97330776     0.37100
N2171       N  0.39729387  0.51360465  0.95294287    -0.89500
H2172       H  0.44387338  0.50385868  0.96061520     0.18200
H2173       H  0.38369781  0.99140449  0.02681863     0.18200
N2174       N  0.43136171  0.98644257  0.03511621    -0.88500
H2175       H  0.41198649  0.51431742  0.94079412     0.35500
H2176       H  0.40093139  0.53579803  0.95445600     0.40600
H2177       H  0.45142216  0.98539773  0.03482330     0.40300
H2178       H  0.41421940  0.96520931  0.04064244     0.35100
C2179       C  0.09889122  0.49978129  0.98791167    -0.26600
C2180       C  0.10994299  0.99733086  0.00694721    -0.14700
C2181       C  0.09535786  0.00014525  0.02561748     0.36000
C2182       C  0.06933407  0.00331109  0.02348140    -0.26000
C2183       C  0.05756780  0.00383551  0.00305087    -0.15300
C2184       C  0.07359191  0.50389913  0.98610811     0.37100
N2185       N  0.06325921  0.50694632  0.96520513    -0.89500
H2186       H  0.11052745  0.49975855  0.97322807     0.18200
H2187       H  0.05783849  0.00465976  0.03784394     0.18200
N2188       N  0.10652286  0.99945789  0.04675599    -0.88500
H2189       H  0.05829943  0.48752104  0.95611450     0.35500
H2190       H  0.08130697  0.52573793  0.95762868     0.40600
H2191       H  0.08896936  0.98138905  0.05525482     0.40300
H2192       H  0.11173484  0.01980907  0.05470064     0.35100
C2193       C  0.14323385  0.94569907  0.87113332    -0.26600
C2194       C  0.11411855  0.94247826  0.87280761    -0.14700
C2195       C  0.10611084  0.95188933  0.89190114     0.33300
C2196       C  0.12704830  0.96386803  0.90912207    -0.26000
C2197       C  0.15600583  0.96632120  0.90781400    -0.15300
C2198       C  0.16397356  0.95697526  0.88847347     0.37100
N2199       N  0.19300751  0.95874104  0.88628871    -0.89500
H2200       H  0.14971316  0.93889276  0.85633738     0.18200
H2201       H  0.11844451  0.46917356  0.92622866     0.18200
N2202       N  0.07685273  0.94966339  0.89375275    -0.88500
H2203       H  0.20417968  0.97252887  0.87299504     0.35500
H2204       H  0.18916985  0.93677496  0.88301476     0.40600
H2205       H  0.08031370  0.97152049  0.89686714     0.40300
H2206       H  0.06397395  0.43414777  0.90966923     0.35100
C2207       C  0.30807527  0.95572865  0.90237087    -0.26600
C2208       C  0.27744640  0.93717343  0.90857773    -0.14700
C2209       C  0.25714849  0.91366550  0.89461106     0.36000
C2210       C  0.26803562  0.90847400  0.87513019    -0.26000
C2211       C  0.29881217  0.92662841  0.86931300    -0.15300
C2212       C  0.31876730  0.95082671  0.88278930     0.37100
N2213       N  0.35004356  0.97007672  0.87679396    -0.89500
H2214       H  0.32377588  0.97452024  0.91261098     0.18200
H2215       H  0.25262775  0.88972177  0.86475255     0.18200
N2216       N  0.22577505  0.89456644  0.90038219    -0.88500
H2217       H  0.36379189  0.96917810  0.88906126     0.35500
H2218       H  0.35428429  0.99252756  0.87596664     0.40600
H2219       H  0.22113850  0.87195351  0.90072517     0.40300
H2220       H  0.21233436  0.89629826  0.88824211     0.35100
C2221       C  0.46583371  0.82261889  0.09834900    -0.26600
C2222       C  0.44756662  0.79158582  0.09254771    -0.14700
C2223       C  0.42261807  0.77246983  0.10593549     0.36000
C2224       C  0.41660040  0.78478528  0.12458601    -0.26000
C2225       C  0.43499791  0.81575369  0.13028168    -0.15300
C2226       C  0.45992994  0.83466672  0.11706250     0.37100
N2227       N  0.47900833  0.86632175  0.12237689    -0.89500
H2228       H  0.48527954  0.83766061  0.08849507     0.18200
H2229       H  0.39721964  0.77024356  0.13466009     0.18200
N2230       N  0.40322743  0.74080389  0.10044052    -0.88500
H2231       H  0.47869325  0.87925690  0.10933274     0.35500
H2232       H  0.50135077  0.87057896  0.12419178     0.40600
H2233       H  0.39222522  0.73988269  0.08591081     0.40300
H2234       H  0.38610968  0.72990550  0.11201307     0.35100
C2235       C  0.34933977  0.79499283  0.13073797    -0.26600
C2236       C  0.37877729  0.82033820  0.12953202    -0.14700
C2237       C  0.38805446  0.83825738  0.11072734     0.36000
C2238       C  0.36817926  0.82941108  0.09294155    -0.26000
C2239       C  0.33891309  0.80330969  0.09371105    -0.15300
C2240       C  0.32933100  0.78626588  0.11317214     0.37100
N2241       N  0.29940290  0.76040821  0.11588429    -0.89500
H2242       H  0.34191251  0.78176082  0.14549016     0.18200
H2243       H  0.37588304  0.84277256  0.07827798     0.18200
N2244       N  0.41748551  0.86547680  0.10986232    -0.88500
H2245       H  0.29683020  0.74277924  0.10568940     0.35500
H2246       H  0.28325890  0.76677457  0.11193336     0.40600
H2247       H  0.41769273  0.88084226  0.12130967     0.40300
H2248       H  0.42091923  0.87601176  0.09480431     0.35100
C2249       C  0.33396147  0.60000081  0.31646642    -0.26600
C2250       C  0.33046622  0.60985837  0.33690654    -0.14700
C2251       C  0.32268521  0.58989615  0.35474009     0.36000
C2252       C  0.31969626  0.56113182  0.35172535    -0.26000
C2253       C  0.32480143  0.55167901  0.33151136    -0.15300
C2254       C  0.33090027  0.57102666  0.31345062     0.37100
N2255       N  0.33467707  0.56168842  0.29225130    -0.89500
H2256       H  0.33910428  0.61510399  0.30277189     0.18200
H2257       H  0.31444982  0.54651448  0.36571467     0.18200
N2258       N  0.31811776  0.59796963  0.37617604    -0.88500
H2259       H  0.34013736  0.57908376  0.28103020     0.35500
H2260       H  0.31354427  0.54340774  0.28748238     0.40600
H2261       H  0.32150962  0.62005389  0.37690444     0.40300
H2262       H  0.33459827  0.59775778  0.38627118     0.35100
C2263       C  0.35510591  0.77759317  0.36017822    -0.26600
C2264       C  0.35016422  0.78931442  0.34098144    -0.14700
C2265       C  0.34065766  0.77037498  0.32225713     0.36000
C2266       C  0.33734803  0.74128479  0.32302379    -0.26000
C2267       C  0.34219569  0.72975197  0.34216659    -0.15300
C2268       C  0.35070652  0.74794159  0.36113986     0.37100
N2269       N  0.35472781  0.73714673  0.38164877    -0.89500
H2270       H  0.36172630  0.79128674  0.37481109     0.18200
H2271       H  0.33063336  0.72734071  0.30849914     0.18200
N2272       N  0.33324940  0.77944056  0.30233522    -0.88500
H2273       H  0.33876566  0.73724729  0.39232586     0.35500
H2274       H  0.34974290  0.71454477  0.38066728     0.40600
H2275       H  0.35275206  0.79881608  0.29680317     0.40300
H2276       H  0.31586119  0.78450633  0.30508517     0.35100
C2277       C  0.31921924  0.00778407  0.43584318    -0.26600
C2278       C  0.31488340  0.97818484  0.43296061    -0.14700
C2279       C  0.29723293  0.95558029  0.44864479     0.36000
C2280       C  0.28312949  0.96247759  0.46540625    -0.26000
C2281       C  0.28605292  0.99137306  0.46737260    -0.15300
C2282       C  0.30522203  0.01471712  0.45285051     0.37100
N2283       N  0.31066262  0.04544333  0.45458794    -0.89500
H2284       H  0.33286847  0.02561293  0.42439425     0.18200
H2285       H  0.26889686  0.94469574  0.47673714     0.18200
N2286       N  0.29214128  0.92504005  0.44784141    -0.88500
H2287       H  0.30205210  0.05006381  0.44062981     0.35500
H2288       H  0.29905793  0.04800236  0.46762909     0.40600
H2289       H  0.31318318  0.92582176  0.44815593     0.40300
H2290       H  0.28014598  0.91427580  0.43373835     0.35100
C2291       C  0.27985759  0.83742477  0.44576767    -0.26600
C2292       C  0.28760948  0.82864553  0.42625838    -0.14700
C2293       C  0.28761213  0.80063319  0.42533209     0.36000
C2294       C  0.28155044  0.78314927  0.44410069    -0.26000
C2295       C  0.27382722  0.79197145  0.46346911    -0.15300
C2296       C  0.27269220  0.81935190  0.46431387     0.37100
N2297       N  0.26353700  0.82911301  0.48334021    -0.89500
H2298       H  0.27958630  0.85869881  0.44676444     0.18200
H2299       H  0.28164680  0.76176547  0.44346647     0.18200
N2300       N  0.29331927  0.78973157  0.40535660    -0.88500
H2301       H  0.28223911  0.84967517  0.48854169     0.35500
H2302       H  0.25786493  0.81368386  0.49602385     0.40600
H2303       H  0.27534694  0.78518241  0.39481636     0.40300
H2304       H  0.29283298  0.76899424  0.40761852     0.35100
C2305       C  0.38254551  0.83338693  0.22159175    -0.26600
C2306       C  0.39456153  0.85485272  0.20499844    -0.14700
C2307       C  0.39266799  0.88157672  0.20630346     0.36000
C2308       C  0.37973703  0.88700100  0.22462646    -0.26000
C2309       C  0.36855241  0.86602876  0.24185334    -0.15300
C2310       C  0.36970917  0.83868708  0.23997313     0.37100
N2311       N  0.35861355  0.81641894  0.25680034    -0.89500
H2312       H  0.38312132  0.81231346  0.22029854     0.18200
H2313       H  0.37922564  0.90815546  0.22553006     0.18200
N2314       N  0.40435918  0.90346526  0.18918724    -0.88500
H2315       H  0.37665097  0.81338815  0.26187735     0.35500
H2316       H  0.34162965  0.79570389  0.25029976     0.40600
H2317       H  0.38654592  0.90635726  0.18339829     0.40300
H2318       H  0.42110076  0.92432545  0.19566588     0.35100
C2319       C  0.23179850  0.57498194  0.32392948    -0.26600
C2320       C  0.21677195  0.56369919  0.34379244    -0.14700
C2321       C  0.23157371  0.57958142  0.36295190     0.36000
C2322       C  0.26108023  0.60522229  0.36192292    -0.26000
C2323       C  0.27632597  0.61548623  0.34214229    -0.15300
C2324       C  0.26126654  0.60051748  0.32300571     0.37100
N2325       N  0.27588391  0.61126403  0.30254766    -0.89500
H2326       H  0.22109784  0.56341356  0.30894635     0.18200
H2327       H  0.27223932  0.61702671  0.37671025     0.18200
N2328       N  0.21685849  0.56992638  0.38348917    -0.88500
H2329       H  0.26202666  0.61651542  0.29305378     0.35500
H2330       H  0.27714657  0.59340555  0.29497405     0.40600
H2331       H  0.23073471  0.56535003  0.39350338     0.40300
H2332       H  0.21539821  0.58811395  0.39030955     0.35100
C2333       C  0.40465437  0.73809554  0.31542169    -0.26600
C2334       C  0.39621048  0.72446656  0.33586654    -0.14700
C2335       C  0.41750684  0.73655113  0.35304505     0.36000
C2336       C  0.44634477  0.76190696  0.34937800    -0.26000
C2337       C  0.45491256  0.77612783  0.32904279    -0.15300
C2338       C  0.43378398  0.76357948  0.31171394     0.37100
N2339       N  0.44165667  0.77675868  0.29050988    -0.89500
H2340       H  0.38845003  0.72846774  0.30220908     0.18200
H2341       H  0.46196988  0.77094819  0.36294362     0.18200
N2342       N  0.41091252  0.72387121  0.37442244    -0.88500
H2343       H  0.42322666  0.76536804  0.27987490     0.35500
H2344       H  0.45900161  0.77316575  0.28465814     0.40600
H2345       H  0.38892141  0.70521471  0.37548973     0.40300
H2346       H  0.41190750  0.74057731  0.38494878     0.35100
C2347       C  0.04981916  0.83381309  0.44474279    -0.26600
C2348       C  0.03173921  0.82410044  0.42591473    -0.14700
C2349       C  0.00604904  0.79420495  0.42541589     0.36000
C2350       C  0.99884855  0.77516417  0.44356170    -0.26000
C2351       C  0.01693066  0.78501560  0.46227943    -0.15300
C2352       C  0.04261391  0.81464840  0.46280896     0.37100
N2353       N  0.06175029  0.82520011  0.48160240    -0.89500
H2354       H  0.06982932  0.85639938  0.44547347     0.18200
H2355       H  0.97882823  0.75257920  0.44305087     0.18200
N2356       N  0.98756775  0.78264049  0.40636775    -0.88500
H2357       H  0.06227728  0.84500816  0.48718573     0.35500
H2358       H  0.08388477  0.83104061  0.47698742     0.40600
H2359       H  0.96512375  0.77631023  0.41044474     0.40300
H2360       H  0.98784728  0.76299771  0.40135181     0.35100
C2361       C  0.17924637  0.93150721  0.43939534    -0.26600
C2362       C  0.18552450  0.95147886  0.42187270    -0.14700
C2363       C  0.21143312  0.98121954  0.42310741     0.36000
C2364       C  0.22830443  0.99102262  0.44239849    -0.26000
C2365       C  0.22068469  0.97172548  0.46028683    -0.15300
C2366       C  0.19659456  0.94112602  0.45848179     0.37100
N2367       N  0.18853295  0.91948922  0.47577724    -0.89500
H2368       H  0.15987400  0.90850744  0.43870794     0.18200
H2369       H  0.24677479  0.01438482  0.44382080     0.18200
N2370       N  0.22001353  0.00182511  0.40512329    -0.88500
H2371       H  0.19109387  0.90141799  0.47002948     0.35500
H2372       H  0.20354024  0.92877328  0.48882551     0.40600
H2373       H  0.22662983  0.99251675  0.39255835     0.40300
H2374       H  0.23910618  0.02291777  0.40894001     0.35100
C2375       C  0.47455238  0.85221141  0.23970766    -0.26600
C2376       C  0.48903987  0.88358074  0.24492086    -0.14700
C2377       C  0.48607154  0.90354617  0.23043110     0.36000
C2378       C  0.46919916  0.89177778  0.21112748    -0.26000
C2379       C  0.45542029  0.86057001  0.20583902    -0.15300
C2380       C  0.45821925  0.84068725  0.22039014     0.37100
N2381       N  0.44468220  0.80865351  0.21598350    -0.89500
H2382       H  0.47672103  0.83646896  0.25041326     0.18200
H2383       H  0.46655445  0.90697360  0.20016289     0.18200
N2384       N  0.49994535  0.93556705  0.23537251    -0.88500
H2385       H  0.45395391  0.80587448  0.20165642     0.35500
H2386       H  0.42124243  0.79946958  0.21370858     0.40600
H2387       H  0.48926017  0.93772503  0.24917805     0.40300
H2388       H  0.49582105  0.94707078  0.22298233     0.35100
C2389       C  0.44834920  0.65972858  0.10769191    -0.26600
C2390       C  0.46997496  0.66010816  0.09314611    -0.14700
C2391       C  0.48013765  0.63884634  0.09625060     0.36000
C2392       C  0.46862768  0.61803595  0.11345242    -0.26000
C2393       C  0.44615232  0.61695631  0.12721741    -0.15300
C2394       C  0.43633895  0.63829673  0.12452368     0.37100
N2395       N  0.41426889  0.63834040  0.13897067    -0.89500
H2396       H  0.43996796  0.67555011  0.10568904     0.18200
H2397       H  0.47713202  0.60239693  0.11593310     0.18200
N2398       N  0.50198384  0.63802934  0.08196214    -0.88500
H2399       H  0.90558113  0.64618823  0.14034532     0.35500
H2400       H  0.39548517  0.63509788  0.12982032     0.40600
H2401       H  0.49209953  0.61619851  0.07506576     0.40300
H2402       H  0.52082031  0.64146403  0.09113020     0.35100
C2403       C  0.35856929  0.55595171  0.12755133    -0.26600
C2404       C  0.38663914  0.55681957  0.12579347    -0.14700
C2405       C  0.39297445  0.54536566  0.10677285     0.36000
C2406       C  0.37140220  0.53403114  0.08996595    -0.26000
C2407       C  0.34318872  0.53313650  0.09158987    -0.15300
C2408       C  0.33671774  0.54413248  0.11082430     0.37100
N2409       N  0.30802632  0.54320376  0.11345534    -0.89500
H2410       H  0.35352609  0.56420791  0.14228750     0.18200
H2411       H  0.37698007  0.52591643  0.07539673     0.18200
N2412       N  0.42034157  0.54369736  0.10414423    -0.88500
H2413       H  0.30724253  0.55275423  0.12828854     0.35500
H2414       H  0.29093733  0.52022507  0.11390647     0.40600
H2415       H  0.43392306  0.55073062  0.11800151     0.40300
H2416       H  0.43299988  0.55853915  0.09166804     0.35100
C2417       C  0.38129656  0.53525242  0.21334734    -0.26600
C2418       C  0.40537628  0.53653073  0.20136082    -0.14700
C2419       C  0.42170277  0.52295316  0.20969782     0.36000
C2420       C  0.41466932  0.50979804  0.23037360    -0.26000
C2421       C  0.39128555  0.50946998  0.24287867    -0.15300
C2422       C  0.37412257  0.52205018  0.23391250     0.37100
N2423       N  0.36434993  0.03998499  0.25285745    -0.89500
H2424       H  0.36873530  0.54572838  0.20700968     0.18200
H2425       H  0.42749132  0.49961670  0.23671749     0.18200
N2426       N  0.44567641  0.52304136  0.19721832    -0.88500
H2427       H  0.35684621  0.53389593  0.25930404     0.35500
H2428       H  0.34428744  0.01993920  0.25686638     0.40600
H2429       H  0.43574962  0.50992202  0.18332872     0.40300
H2430       H  0.45571311  0.51243532  0.20568397     0.35100
C2431       C  0.22909065  0.63852167  0.12509761    -0.26600
C2432       C  0.19831233  0.62441302  0.13101773    -0.14700
C2433       C  0.17705458  0.62599546  0.11724736     0.36000
C2434       C  0.18698096  0.64100801  0.09737595    -0.26000
C2435       C  0.21783148  0.65481540  0.09111752    -0.15300
C2436       C  0.23906067  0.65330917  0.10530479     0.37100
N2437       N  0.27063492  0.66576607  0.10000542    -0.89500
H2438       H  0.24551139  0.63767088  0.13590319     0.18200
H2439       H  0.17057772  0.64260499  0.08699532     0.18200
N2440       N  0.14567622  0.61288193  0.12366389    -0.88500
H2441       H  0.28111893  0.68951461  0.09916822     0.35500
H2442       H  0.27217916  0.65699217  0.08503676     0.40600
H2443       H  0.13638382  0.58926845  0.12473250     0.40300
H2444       H  0.13310615  0.61655387  0.11182389     0.35100
C2445       C  0.22814652  0.57639765  0.13004122    -0.26600
C2446       C  0.19720457  0.56665677  0.13301675    -0.14700
C2447       C  0.17625262  0.55139183  0.11604798     0.36000
C2448       C  0.18708758  0.54743376  0.09620993    -0.26000
C2449       C  0.21834435  0.55811156  0.09282664    -0.15300
C2450       C  0.23915490  0.57316846  0.10998281     0.37100
N2451       N  0.27141772  0.58578261  0.10693918    -0.89500
H2452       H  0.24407606  0.58846508  0.14306450     0.18200
H2453       H  0.17064732  0.53535224  0.08346289     0.18200
N2454       N  0.14400763  0.53987570  0.11827387    -0.88500
H2455       H  0.28336632  0.59570792  0.12124115     0.35500
H2456       H  0.27855143  0.60348905  0.09573304     0.40600
H2457       H  0.13845301  0.54299290  0.13395136     0.40300
H2458       H  0.13289342  0.51624515  0.11578126     0.35100
C2459       C  0.13092530  0.53657388  0.21404519    -0.26600
C2460       C  0.16202296  0.55316644  0.20909851    -0.14700
C2461       C  0.18302044  0.54950718  0.22181375     0.36000
C2462       C  0.16992808  0.02456632  0.23708900    -0.26000
C2463       C  0.14133744  0.51219600  0.24425485    -0.15300
C2464       C  0.12038104  0.51618755  0.23145295     0.37100
N2465       N  0.08843874  0.50022878  0.23633784    -0.89500
H2466       H  0.11468874  0.53923998  0.20418584     0.18200
H2467       H  0.18508117  0.01909723  0.24591832     0.18200
N2468       N  0.21494073  0.56643677  0.21696998    -0.88500
H2469       H  0.07662234  0.48739729  0.22274553     0.35500
H2470       H  0.08168971  0.51639718  0.23919966     0.40600
H2471       H  0.22641677  0.57939737  0.23060572     0.40300
H2472       H  0.21637506  0.03878312  0.20966635     0.35100
C2473       C  0.23791078  0.67258078  0.35909539    -0.26600
C2474       C  0.22368876  0.66938899  0.33889899    -0.14700
C2475       C  0.23910114  0.66875611  0.31995424     0.36000
C2476       C  0.26820386  0.67190404  0.32175648    -0.26000
C2477       C  0.28188781  0.67448478  0.34193193    -0.15300
C2478       C  0.26643680  0.67459065  0.36090073     0.37100
N2479       N  0.27872361  0.67650911  0.38218712    -0.89500
H2480       H  0.22671380  0.67329380  0.37382305     0.18200
H2481       H  0.27997735  0.67124442  0.30732164     0.18200
N2482       N  0.22535452  0.66483815  0.29896719    -0.88500
H2483       H  0.26329918  0.65695475  0.39065213     0.35500
H2484       H  0.29913198  0.67616688  0.38163964     0.40600
H2485       H  0.20661478  0.64267283  0.29824443     0.40300
H2486       H  0.24029796  0.66610049  0.28682220     0.35100
C2487       C  0.43488620  0.66319117  0.34721700    -0.26600
C2488       C  0.44957753  0.67190608  0.32706245    -0.14700
C2489       C  0.43422330  0.67635607  0.30962417     0.36000
C2490       C  0.40498322  0.67266546  0.31297088    -0.26000
C2491       C  0.39105626  0.66527907  0.33343294    -0.15300
C2492       C  0.40621751  0.66013567  0.35072478     0.37100
N2493       N  0.39363718  0.65213664  0.37210792    -0.89500
H2494       H  0.44589935  0.65884837  0.36067913     0.18200
H2495       H  0.39341499  0.67675858  0.29976698     0.18200
N2496       N  0.44852932  0.68530814  0.28882113    -0.88500
H2497       H  0.40888541  0.66893947  0.38278517     0.35500
H2498       H  0.37323753  0.65233290  0.37335346     0.40600
H2499       H  0.46769312  0.70706283  0.29053597     0.40300
H2500       H  0.43405626  0.68744015  0.27777324     0.35100
C2501       C  0.05099263  0.71859121  0.44096903    -0.26600
C2502       C  0.02820169  0.69767977  0.42681682    -0.14700
C2503       C  0.99730134  0.68868093  0.43108934     0.36000
C2504       C  0.49037318  0.70746241  0.44592976    -0.26000
C2505       C  0.01335755  0.72361789  0.46201464    -0.15300
C2506       C  0.04386744  0.73143346  0.45842004     0.37100
N2507       N  0.06803207  0.75216467  0.47240556    -0.89500
H2508       H  0.07478749  0.72574677  0.43822956     0.18200
H2509       H  0.46767959  0.70432849  0.44775448     0.18200
N2510       N  0.47412246  0.67990050  0.41145836    -0.88500
H2511       H  0.06317743  0.74347242  0.48810660     0.35500
H2512       H  0.06860610  0.77310797  0.47231204     0.40600
H2513       H  0.46703199  0.69486074  0.40583934     0.40300
H2514       H  0.45544492  0.66142219  0.41880371     0.35100
C2515       C  0.19573120  0.71272207  0.42516743    -0.26600
C2516       C  0.18061110  0.72942149  0.42195551    -0.14700
C2517       C  0.18326778  0.75068393  0.43797461     0.36000
C2518       C  0.20034980  0.75428904  0.45669341    -0.26000
C2519       C  0.21476026  0.73702245  0.45997876    -0.15300
C2520       C  0.21278104  0.71624901  0.44383590     0.37100
N2521       N  0.22779177  0.69851315  0.44565115    -0.89500
H2522       H  0.19386269  0.69615038  0.41319900     0.18200
H2523       H  0.20251023  0.77080989  0.46880460     0.18200
N2524       N  0.16959296  0.76940444  0.43555561    -0.88500
H2525       H  0.24354510  0.70497200  0.43304181     0.35500
H2526       H  0.24031128  0.70313437  0.45993912     0.40600
H2527       H  0.14588288  0.75544968  0.43527390     0.40300
H2528       H  0.17683748  0.78112987  0.42091902     0.35100
C2529       C  0.00454060  0.60046124  0.22322882    -0.26600
C2530       C  0.49573701  0.60742257  0.24165173    -0.14700
C2531       C  0.46602986  0.60346689  0.24122193     0.36000
C2532       C  0.45060808  0.59794196  0.22141904    -0.26000
C2533       C  0.46324947  0.59424471  0.20225398    -0.15300
C2534       C  0.49241597  0.59700367  0.20284846     0.37100
N2535       N  0.00274102  0.58836434  0.18493228    -0.89500
H2536       H  0.02614007  0.60086524  0.22386147     0.18200
H2537       H  0.42816770  0.59569205  0.22097477     0.18200
N2538       N  0.45151156  0.60481416  0.26083594    -0.88500
H2539       H  0.00722917  0.60499696  0.17328551     0.35500
H2540       H  0.49163987  0.57153155  0.17718367     0.40600
H2541       H  0.44842816  0.58656024  0.27051007     0.40300
H2542       H  0.42971821  0.60139416  0.25762782     0.35100
C2543       C  0.17305822  0.64028419  0.24037635    -0.26600
C2544       C  0.14485628  0.63958077  0.23956374    -0.14700
C2545       C  0.12550462  0.62563942  0.22151562     0.36000
C2546       C  0.13432953  0.61239692  0.20516141    -0.26000
C2547       C  0.16200902  0.61250265  0.20640653    -0.15300
C2548       C  0.18181870  0.62694307  0.22396761     0.37100
N2549       N  0.21070051  0.62796227  0.22505416    -0.89500
H2550       H  0.18810953  0.65062993  0.25411081     0.18200
H2551       H  0.11940222  0.60185188  0.19137586     0.18200
N2552       N  0.09679123  0.62465328  0.21966855    -0.88500
H2553       H  0.22248822  0.63913947  0.23913789     0.35500
H2554       H  0.22392308  0.64108289  0.21208083     0.40600
H2555       H  0.07958885  0.60175379  0.21859210     0.40300
H2556       H  0.09678860  0.63542181  0.20527342     0.35100
O2557       O  0.52937110  0.14169610  0.32799237    -0.88600
C2558       C  0.59696458  0.19805138  0.28574718     0.87400
Mg2559     Mg  0.52305818  0.15608860  0.35944254     1.58100
O2560       O  0.60858952  0.14291407  0.31245642    -0.88300
O2561       O  0.53572277  0.10628126  0.31268707    -0.75700
C2562       C  0.65847780  0.22262436  0.40428164     0.92500
O2563       O  0.55807839  0.21451109  0.32268923    -0.75500
O2564       O  0.63355133  0.22288433  0.40476828    -0.83000
Mg2565     Mg  0.53370811  0.17147948  0.30142676     1.58000
C2566       C  0.69531036  0.17287550  0.33951566     0.92400
O2567       O  0.50770902  0.13321135  0.27659926    -0.81300
H2568       H  0.59590725  0.09946740  0.31907040    -0.06600
C2569       C  0.65005188  0.22835191  0.33989616     0.87300
O2570       O  0.54854628  0.13489980  0.37622286    -0.75800
O2571       O  0.57639897  0.17386358  0.29317687    -0.88500
O2572       O  0.68226806  0.17071595  0.32148512    -0.81300
C2573       C  0.63829764  0.15379478  0.25969035     0.92500
C2574       C  0.51447687  0.12086028  0.26121204     0.92400
Mg2575     Mg  0.63926277  0.17261826  0.36482572     1.58000
O2576       O  0.66615465  0.21318072  0.38765821    -0.81300
O2577       O  0.61488244  0.12863183  0.34442805    -0.75500
O2578       O  0.61029423  0.14664077  0.26060568    -0.81300
O2579       O  0.98754352  0.16743458  0.30856913    -0.83100
O2580       O  0.56293908  0.19355007  0.40586214    -0.81400
C2581       C  0.60623982  0.12275943  0.32486102     0.86800
O2582       O  0.59658302  0.16913158  0.37277484    -0.88500
O2583       O  0.64325723  0.20133600  0.33785849    -0.88600
O2584       O  0.63628614  0.23640024  0.35326537    -0.75700
Mg2585     Mg  0.57424516  0.13053236  0.28785576     1.58000
O2586       O  0.65651078  0.16740097  0.27530893    -0.83000
H2587       H  0.50337251  0.09749665  0.33533191    -0.06800
O2588       O  0.56402039  0.19936344  0.35441394    -0.88300
H2589       H  0.57656651  0.24292902  0.34845683    -0.06600
H2590       H  0.58300799  0.13035163  0.38906466    -0.06800
C2591       C  0.56636727  0.21980916  0.34233153     0.86800
C2592       C  0.52181329  0.11454294  0.32570206     0.87400
C2593       C  0.57654021  0.14444190  0.37992981     0.87400
H2594       H  0.66783485  0.24547805  0.32988376    -0.06800
O2595       O  0.62482623  0.20671491  0.28936151    -0.75800
Mg2596     Mg  0.59833110  0.21169822  0.37864242     1.58000
H2597       H  0.59112647  0.21235983  0.27628594    -0.06800
C2598       C  0.97862865  0.17234987  0.32661514     0.92400
O2599       O  0.51625726  0.17260652  0.39210014    -0.83000
C2600       C  0.53482800  0.18552609  0.40765680     0.92500
O2601       O  0.53865621  0.11899761  0.26173436    -0.83000
Mg2602     Mg  0.65009021  0.18574653  0.30703309     1.58200
O2603       O  0.49170300  0.17157798  0.34579660    -0.81300
O2604       O  0.68423694  0.17606748  0.35706642    -0.83000
C2605       C  0.67714570  0.10460648  0.18952386     0.02000
C2606       C  0.67714829  0.07654008  0.19026759     0.02000
C2607       C  0.68614976  0.06653666  0.17195176    -0.18500
C2608       C  0.69467496  0.08368027  0.15294243     0.02000
C2609       C  0.69496929  0.11168551  0.15227258     0.02000
C2610       C  0.68626086  0.12189474  0.17048507    -0.18500
H2611       H  0.68642062  0.14341610  0.16978595     0.04000
H2612       H  0.68553713  0.04478256  0.17225985     0.04000
C2613       C  0.91418057  0.05642549  0.18198795     0.02000
C2614       C  0.94287981  0.08353925  0.18191637     0.02000
C2615       C  0.95250495  0.10184031  0.16337865    -0.18500
C2616       C  0.93414101  0.09357897  0.14476880     0.02000
C2617       C  0.90556426  0.06610489  0.14468677     0.02000
C2618       C  0.89580593  0.04802092  0.16342054    -0.18500
H2619       H  0.87381507  0.02718416  0.16351101     0.04000
H2620       H  0.97402067  0.12319074  0.16365066     0.04000
O2621       O  0.64269944  0.45293270  0.33863323    -0.88600
C2622       C  0.57347865  0.42975700  0.38146976     0.87400
Mg2623     Mg  0.64475448  0.47450634  0.30843518     1.58100
O2624       O  0.57102096  0.36903343  0.35177505    -0.88300
O2625       O  0.64323035  0.41281836  0.35090653    -0.75700
C2626       C  0.50763125  0.39209886  0.26280989     0.92500
O2627       O  0.60542860  0.48782298  0.34766350    -0.75500
O2628       O  0.52946098  0.41966497  0.26403016    -0.83000
Mg2629     Mg  0.63526559  0.47339535  0.36680638     1.58000
C2630       C  0.98405533  0.30579233  0.32791742     0.92400
O2631       O  0.66610429  0.46447310  0.38937889    -0.81300
H2632       H  0.58825603  0.34249876  0.34328503    -0.06600
C2633       C  0.51660292  0.40119437  0.32782618     0.87300
O2634       O  0.62363678  0.42844600  0.29044534    -0.75800
O2635       O  0.59635903  0.42978680  0.37444319    -0.88500
O2636       O  0.50139947  0.31494869  0.34341333    -0.81300
C2637       C  0.54342899  0.34491971  0.40523273     0.92500
C2638       C  0.66390133  0.44447545  0.40287143     0.92400
Mg2639     Mg  0.53452906  0.36347258  0.30025373     1.58000
O2640       O  0.50425469  0.37235946  0.27697459    -0.81300
O2641       O  0.56431323  0.34889024  0.31950202    -0.75500
O2642       O  0.57106009  0.36652529  0.40385525    -0.81300
O2643       O  0.67993714  0.01754443  0.35964979    -0.83100
O2644       O  0.60010648  0.47126871  0.26317229    -0.81400
C2645       C  0.57501746  0.35298030  0.33858206     0.86800
O2646       O  0.57397353  0.40712581  0.29248902    -0.88500
O2647       O  0.52805139  0.38463718  0.32835539    -0.88600
O2648       O  0.52741237  0.42456644  0.31580494    -0.75700
Mg2649     Mg  0.60531432  0.39208966  0.37637657     1.58000
O2650       O  0.52452044  0.33930667  0.38996540    -0.83000
H2651       H  0.67340574  0.44163558  0.32879504    -0.06800
O2652       O  0.60016357  0.46909208  0.31499492    -0.88300
H2653       H  0.58232156  0.49501318  0.32369337    -0.06600
H2654       H  0.59423885  0.38810647  0.27601990    -0.06800
C2655       C  0.59558708  0.48455352  0.32837855     0.86800
C2656       C  0.65416317  0.43638800  0.33909925     0.87400
C2657       C  0.59693707  0.40713718  0.28572348     0.87400
H2658       H  0.49742410  0.39607133  0.33816496    -0.06800
O2659       O  0.54668989  0.40857672  0.37677898    -0.75800
Mg2660     Mg  0.56551048  0.44525424  0.29032068     1.58000
H2661       H  0.57633773  0.44872475  0.39132520    -0.06800
C2662       C  0.68913816  0.03274094  0.34223495     0.92400
O2663       O  0.64709064  0.49744458  0.27681930    -0.83000
C2664       C  0.62804400  0.49210014  0.26168145     0.92500
O2665       O  0.64181124  0.41704320  0.40204743    -0.83000
Mg2666     Mg  0.52658697  0.36284815  0.35852319     1.58200
O2667       O  0.67603003  0.02148368  0.32420028    -0.81300
O2668       O  0.99212419  0.32047209  0.31023017    -0.83000
O2669       O  0.81721602  0.36680669  0.34259734    -0.88600
C2670       C  0.87189666  0.43717280  0.38302589     0.87400
Mg2671     Mg  0.83328273  0.36213239  0.31152295     1.58100
O2672       O  0.81175324  0.44174783  0.35856895    -0.88300
O2673       O  0.78009249  0.36977218  0.35830856    -0.75700
C2674       C  0.88614985  0.49520044  0.26518948     0.92500
O2675       O  0.89075927  0.39948215  0.34824448    -0.75500
O2676       O  0.89158219  0.47334726  0.26705177    -0.83000
Mg2677     Mg  0.84763316  0.37319230  0.36897928     1.58000
C2678       C  0.82499286  0.02330807  0.33214502     0.92400
O2679       O  0.80894246  0.34463195  0.39241113    -0.81300
H2680       H  0.76717212  0.42461045  0.35304055    -0.06600
C2681       C  0.89507735  0.49169096  0.33037422     0.87300
O2682       O  0.80834913  0.38380527  0.29461184    -0.75800
O2683       O  0.84789948  0.41473820  0.37679406    -0.88500
O2684       O  0.82930397  0.51227620  0.34991016    -0.81300
C2685       C  0.82344283  0.47049551  0.41210406     0.92500
C2686       C  0.79738189  0.35054442  0.40863488     0.92400
Mg2687     Mg  0.83621567  0.47324028  0.30569132     1.58000
O2688       O  0.87280316  0.50152549  0.28012056    -0.81300
O2689       O  0.79423308  0.44557601  0.32719429    -0.75500
O2690       O  0.82198957  0.44475795  0.41030755    -0.81300
O2691       O  0.84602723  0.32904291  0.36057255    -0.83100
O2692       O  0.86999581  0.40441739  0.26601794    -0.81400
C2693       C  0.79013760  0.43698364  0.34674605     0.86800
O2694       O  0.83847351  0.43299378  0.29800032    -0.88500
O2695       O  0.86747167  0.48215178  0.33222802    -0.88600
O2696       O  0.90508681  0.47866775  0.31796598    -0.75700
Mg2697     Mg  0.80365187  0.40888826  0.38321671     1.58000
O2698       O  0.83251261  0.48917275  0.39641374    -0.83000
H2699       H  0.77337469  0.33838701  0.33515019    -0.06800
O2700       O  0.87397977  0.40568260  0.31731128    -0.88300
H2701       H  0.91819111  0.42015269  0.32248132    -0.06600
H2702       H  0.79924004  0.41516565  0.28150027    -0.06800
C2703       C  0.89524919  0.40878638  0.32886255     0.86800
C2704       C  0.78966056  0.35733752  0.34493470     0.87400
C2705       C  0.81494298  0.41105961  0.29078554     0.87400
H2706       H  0.91102780  0.51102780  0.34001745    -0.06800
O2707       O  0.87747689  0.46428394  0.37956392    -0.75800
Mg2708     Mg  0.88352056  0.43952165  0.29315536     1.58000
H2709       H  0.88867821  0.43367279  0.39137658    -0.06800
C2710       C  0.85001988  0.31928903  0.34264061     0.92400
O2711       O  0.85102301  0.35756556  0.27899824    -0.83000
C2712       C  0.86307674  0.37665681  0.26373560     0.92500
O2713       O  0.79530882  0.37455128  0.40934108    -0.83000
Mg2714     Mg  0.85121406  0.48568941  0.36362655     1.58200
O2715       O  0.85333853  0.33384626  0.32520365    -0.81300
O2716       O  0.82921345  0.01372296  0.31417749    -0.83000
C2717       C  0.90716855  0.34810191  0.18605569     0.02000
C2718       C  0.93493325  0.34786093  0.18599654     0.02000
C2719       C  0.94322111  0.33761456  0.16733209    -0.18500
C2720       C  0.92429199  0.32811524  0.14878584     0.02000
C2721       C  0.89751071  0.33034923  0.14883518     0.02000
C2722       C  0.88909298  0.33987474  0.16748923    -0.18500
H2723       H  0.86806290  0.34069180  0.16761271     0.04000
H2724       H  0.96413443  0.33663298  0.16735413     0.04000
O2725       O  0.71561264  0.02342885  0.00675006    -0.88600
C2726       C  0.73437590  0.47201646  0.04734429     0.87400
Mg2727     Mg  0.69176396  0.00532661  0.97668707     1.58100
O2728       O  0.79838176  0.02927434  0.01844538    -0.88300
O2729       O  0.75791857  0.06161587  0.01923412    -0.75700
C2730       C  0.76687777  0.44616052  0.92846636     0.92500
O2731       O  0.67609046  0.45228772  0.01381432    -0.75500
O2732       O  0.74019008  0.44244788  0.92990413    -0.83000
Mg2733     Mg  0.69532718  0.49691929  0.03364394     1.58000
C2734       C  0.85764089  0.00243573  0.99020994     0.92400
O2735       O  0.70719399  0.03497015  0.05854730    -0.81300
H2736       H  0.82726518  0.07297210  0.01113342    -0.06600
C2737       C  0.75841738  0.44236651  0.99309496     0.87300
O2738       O  0.73698301  0.02885480  0.95779730    -0.75800
O2739       O  0.73676366  0.49599849  0.04044373    -0.88500
O2740       O  0.84790862  0.00651355  0.00820448    -0.81300
C2741       C  0.82195142  0.02226335  0.07142742     0.92500
C2742       C  0.72795181  0.04902773  0.07271732     0.92400
Mg2743     Mg  0.79828935  0.99882980  0.96637186     1.58000
O2744       O  0.78706475  0.45999293  0.94300055    -0.81300
O2745       O  0.81726364  0.04334473  0.98609402    -0.75500
O2746       O  0.80102650  0.02919709  0.07013708    -0.81300
O2747       O  0.65265136  0.49948809  0.02635092    -0.83100
O2748       O  0.69438885  0.46691390  0.92955175    -0.81400
C2749       C  0.81496451  0.04948801  0.00566270     0.86800
O2750       O  0.75587867  0.99841163  0.96022679    -0.88500
O2751       O  0.77724685  0.46990350  0.99433679    -0.88600
O2752       O  0.73492611  0.43241465  0.98114368    -0.75700
Mg2753     Mg  0.77696547  0.04109408  0.04362694     1.58000
O2754       O  0.82704768  0.00889189  0.05585642    -0.83000
H2755       H  0.73023528  0.06654346  0.99784691    -0.06800
O2756       O  0.69538111  0.46567444  0.98145810    -0.88300
H2757       H  0.66602978  0.42219698  0.98905534    -0.06600
H2758       H  0.77642048  0.03721073  0.94331052    -0.06800
C2759       C  0.67853920  0.44575555  0.99434853     0.86800
C2760       C  0.73408100  0.05107196  0.00760510     0.87400
C2761       C  0.75725068  0.02191931  0.95321730     0.87400
H2762       H  0.76160716  0.42645441  0.00283564    -0.06800
O2763       O  0.75410197  0.46430325  0.04293792    -0.75800
Mg2764     Mg  0.71704605  0.45372669  0.95651637     1.58000
H2765       H  0.71472557  0.45694986  0.05694860    -0.06800
C2766       C  0.63744682  0.49420931  0.00893723     0.92400
O2767       O  0.66768535  0.48665812  0.94361478    -0.83000
C2768       C  0.67346667  0.47385319  0.92800284     0.92500
O2769       O  0.75435542  0.05226332  0.07057026    -0.83000
Mg2770     Mg  0.79992128  0.48675407  0.02484537     1.58200
O2771       O  0.64669955  0.48851183  0.99132750    -0.81300
O2772       O  0.84229622  0.99768625  0.97287789    -0.83000
O2773       O  0.78181520  0.30755385  0.99546665    -0.88600
C2774       C  0.76150426  0.23671427  0.95420954     0.87400
Mg2775     Mg  0.80375680  0.31150723  0.02569026     1.58100
O2776       O  0.69878243  0.23125901  0.98289168    -0.88300
O2777       O  0.73960417  0.30387157  0.98324732    -0.75700
C2778       C  0.72827873  0.17735371  0.07171017     0.92500
O2779       O  0.82027725  0.27293245  0.98726843    -0.75500
O2780       O  0.75484361  0.20018434  0.06973075    -0.83000
Mg2781     Mg  0.80305720  0.29986078  0.96774463     1.58000
C2782       C  0.63623486  0.14616905  0.00923144     0.92400
O2783       O  0.79169010  0.32812470  0.94451664    -0.81300
H2784       H  0.67020774  0.24666131  0.98975152    -0.06600
C2785       C  0.73555209  0.18223434  0.00720757     0.87300
O2786       O  0.75791005  0.28950896  0.04372965    -0.75800
O2787       O  0.76037722  0.25895191  0.96141327    -0.88500
O2788       O  0.64764424  0.15977360  0.99147390    -0.81300
C2789       C  0.67825368  0.20226172  0.92937246     0.92500
C2790       C  0.77119184  0.32182683  0.93023373     0.92400
Mg2791     Mg  0.69584444  0.19903210  0.03431336     1.58000
O2792       O  0.70738638  0.17116018  0.05777501    -0.81300
O2793       O  0.67846886  0.22587178  0.01475897    -0.75500
O2794       O  0.69944495  0.22984625  0.93151465    -0.81300
O2795       O  0.84814346  0.34307025  0.97491733    -0.83100
O2796       O  0.80000940  0.26954098  0.07061188    -0.81400
C2797       C  0.68184960  0.23492287  0.99535029     0.86800
O2798       O  0.73853317  0.24010706  0.04073829    -0.88500
O2799       O  0.71708571  0.19143203  0.00661858    -0.88600
O2800       O  0.75951867  0.19547056  0.01871231    -0.75700
Mg2801     Mg  0.72123447  0.26487110  0.95840503     1.58000
O2802       O  0.67118401  0.18325252  0.94465998    -0.83000
H2803       H  0.76749759  0.33619564  0.00481213    -0.06800
O2804       O  0.80022225  0.26797298  0.01920308    -0.88300
H2805       H  0.82868614  0.25242493  0.01237803    -0.06600
H2806       H  0.71805110  0.25850461  0.05769532    -0.06800
C2807       C  0.81706143  0.26416071  0.00673868     0.86800
C2808       C  0.76352214  0.31696190  0.99480516     0.87400
C2809       C  0.73736555  0.26231475  0.04795769     0.87400
H2810       H  0.73168891  0.16306253  0.99717239    -0.06800
O2811       O  0.74091768  0.20953504  0.95842964    -0.75800
Mg2812     Mg  0.77792742  0.23440862  0.04362345     1.58000
H2813       H  0.78082805  0.24048561  0.94449831    -0.06800
C2814       C  0.86270586  0.35217841  0.99270197     0.92400
O2815       O  0.82775367  0.31625208  0.05756378    -0.83000
C2816       C  0.82072215  0.29725309  0.07290227     0.92500
O2817       O  0.74460561  0.29895214  0.93212768    -0.83000
Mg2818     Mg  0.69503374  0.18760265  0.97641695     1.58200
O2819       O  0.85074821  0.33912745  0.01047022    -0.81300
O2820       O  0.65104789  0.15538411  0.02691446    -0.83000
O2821       O  0.52465784  0.21709491  0.99369032    -0.88600
C2822       C  0.96869550  0.23510544  0.95282531     0.87400
Mg2823     Mg  0.50820445  0.19692169  0.02509278     1.58100
O2824       O  0.53253442  0.29853528  0.97842344    -0.88300
O2825       O  0.56309132  0.25651142  0.97867718    -0.75700
C2826       C  0.95424220  0.27851691  0.07358175     0.92500
O2827       O  0.94865892  0.17983265  0.98851420    -0.75500
O2828       O  0.94878708  0.25094892  0.07318415    -0.83000
Mg2829     Mg  0.98995579  0.19324515  0.96607766     1.58000
C2830       C  0.51171867  0.36331513  0.00463602     0.92400
O2831       O  0.53083288  0.20130239  0.94153941    -0.81300
H2832       H  0.57687473  0.32564958  0.98495372    -0.06600
C2833       C  0.94653439  0.26542507  0.00922531     0.87300
O2834       O  0.53425651  0.24367900  0.04202141    -0.75800
O2835       O  0.99268323  0.23600708  0.95815737    -0.88500
O2836       O  0.51286889  0.35072262  0.98708976    -0.81300
C2837       C  0.52158602  0.31749637  0.92510465     0.92500
C2838       C  0.54648080  0.22050367  0.92687438     0.92400
Mg2839     Mg  0.50722172  0.30605297  0.03212779     1.58000
O2840       O  0.96948807  0.29737498  0.05866517    -0.81300
O2841       O  0.54889506  0.31937403  0.01028788    -0.75500
O2842       O  0.52945504  0.29719164  0.92654118    -0.81300
O2843       O  0.98837930  0.14858116  0.97428016    -0.83100
O2844       O  0.97022463  0.19997722  0.07253979    -0.81400
C2845       C  0.55366297  0.31509224  0.99076979     0.86800
O2846       O  0.50453419  0.26355056  0.04104880    -0.88500
O2847       O  0.97425684  0.28219955  0.00670118    -0.88600
O2848       O  0.93605870  0.24299424  0.02212662    -0.75700
Mg2849     Mg  0.54217396  0.27429303  0.95364745     1.58000
O2850       O  0.50892846  0.32324248  0.94075832    -0.83000
H2851       H  0.56792329  0.23048270  0.00151817    -0.06800
O2852       O  0.96558821  0.19985825  0.02055215    -0.88300
H2853       H  0.92109147  0.17344164  0.01415836    -0.06600
H2854       H  0.54501026  0.28422642  0.05603843    -0.06800
C2855       C  0.94421924  0.18383869  0.00819093     0.86800
C2856       C  0.55241437  0.23419603  0.99167251     0.87400
C2857       C  0.52835813  0.26458410  0.04697543     0.87400
H2858       H  0.93085390  0.26955365  0.99993136    -0.06800
O2859       O  0.96298873  0.25597194  0.95830249    -0.75800
Mg2860     Mg  0.95721461  0.22423350  0.04623311     1.58000
H2861       H  0.95170255  0.21555143  0.94386872    -0.06800
C2862       C  0.98503540  0.13477975  0.99210066     0.92400
O2863       O  0.98919812  0.17338975  0.05685917    -0.83000
C2864       C  0.97726367  0.17894992  0.07306946     0.92500
O2865       O  0.55178778  0.24796443  0.92750275    -0.83000
Mg2866     Mg  0.98978589  0.30255414  0.97523928     1.58200
O2867       O  0.98446844  0.14698876  0.01003304    -0.81300
O2868       O  0.50835005  0.35018170  0.02277721    -0.83000
O2869       O  0.63540076  0.02181873  0.67015636    -0.88600
C2870       C  0.69180719  0.09352150  0.70899283     0.87400
Mg2871     Mg  0.64942012  0.01663669  0.63837864     1.58100
O2872       O  0.63168078  0.09910296  0.68479440    -0.88300
O2873       O  0.59897556  0.02653981  0.68526691    -0.75700
C2874       C  0.70233310  0.15003536  0.59103621     0.92500
O2875       O  0.70879685  0.05632131  0.67301692    -0.75500
O2876       O  0.70525518  0.12647205  0.59074864    -0.83000
Mg2877     Mg  0.66786941  0.03016383  0.69584558     1.58000
C2878       C  0.65186955  0.18341476  0.65815390     0.92400
O2879       O  0.63238326  0.00314297  0.72270400    -0.81300
H2880       H  0.58705805  0.08357084  0.68081730    -0.06600
C2881       C  0.71366520  0.14608237  0.65439527     0.87300
O2882       O  0.62329864  0.03801232  0.62253783    -0.75800
O2883       O  0.66737896  0.07123186  0.70329488    -0.88500
O2884       O  0.65242977  0.17121492  0.67600554    -0.81300
C2885       C  0.64722808  0.12970909  0.73785631     0.92500
C2886       C  0.61797720  0.00897937  0.73715424     0.92400
Mg2887     Mg  0.65407016  0.12880656  0.63193006     1.58000
O2888       O  0.69117515  0.15649516  0.60726186    -0.81300
O2889       O  0.61263158  0.10285427  0.65406510    -0.75500
O2890       O  0.64113539  0.10216536  0.73594351    -0.81300
O2891       O  0.67117651  0.48827710  0.68824941    -0.83100
O2892       O  0.68091094  0.05604458  0.59047952    -0.81400
C2893       C  0.60958627  0.09494270  0.67374088     0.86800
O2894       O  0.65407787  0.08739347  0.62402704    -0.88500
O2895       O  0.68630228  0.13686347  0.65741296    -0.88600
O2896       O  0.72241933  0.13277152  0.64118482    -0.75700
Mg2897     Mg  0.62319092  0.06612037  0.70939582     1.58000
O2898       O  0.65719591  0.14810719  0.72205594    -0.83000
H2899       H  0.59135307  0.99343876  0.66339244    -0.06800
O2900       O  0.69026634  0.06029299  0.64209005    -0.88300
H2901       H  0.73487878  0.07626239  0.64655962    -0.06600
H2902       H  0.61307916  0.06884285  0.60983853    -0.06800
C2903       C  0.71220239  0.06461126  0.65339360     0.86800
C2904       C  0.60799154  0.01283420  0.67266410     0.87400
C2905       C  0.62967042  0.06512960  0.61826698     0.87400
H2906       H  0.73051063  0.16550254  0.66354089    -0.06800
O2907       O  0.69821804  0.12062647  0.70467604    -0.75800
Mg2908     Mg  0.69814052  0.09279398  0.61712714     1.58000
H2909       H  0.70843142  0.08982736  0.71739030    -0.06800
C2910       C  0.67480930  0.47867358  0.67007690     0.92400
O2911       O  0.66497488  0.01072283  0.60525367    -0.83000
C2912       C  0.67527494  0.02852800  0.58915868     0.92500
O2913       O  0.61404212  0.03181972  0.73556699    -0.83000
Mg2914     Mg  0.67266042  0.14259183  0.68898333     1.58200
O2915       O  0.67095046  0.98969465  0.65158514    -0.81300
O2916       O  0.65431109  0.17258656  0.64019933    -0.83000
C2917       C  0.57962012  0.17596236  0.85038503     0.02000
C2918       C  0.60777369  0.17645756  0.85077923     0.02000
C2919       C  0.61811803  0.16847074  0.83237683    -0.18500
C2920       C  0.60065360  0.15900084  0.81354432     0.02000
C2921       C  0.57136875  0.15622496  0.81312869     0.02000
C2922       C  0.56144072  0.16547237  0.83152977    -0.18500
H2923       H  0.53970527  0.16479555  0.83105043     0.04000
H2924       H  0.63996997  0.16930156  0.83280847     0.04000
C2925       C  0.59292450  0.42937670  0.85305400     0.02000
C2926       C  0.56485688  0.40122267  0.85258422     0.02000
C2927       C  0.54665852  0.39291982  0.83382548    -0.18500
C2928       C  0.55602692  0.41170237  0.81558452     0.02000
C2929       C  0.58412296  0.43927343  0.81587286     0.02000
C2930       C  0.60223909  0.44791844  0.83455894    -0.18500
H2931       H  0.62366477  0.46937386  0.83475755     0.04000
H2932       H  0.52524169  0.37146677  0.83330234     0.04000
O2933       O  0.97044404  0.11483521  0.67266594    -0.88600
C2934       C  0.90328924  0.09583960  0.71671785     0.87400
Mg2935     Mg  0.97239198  0.13543309  0.64200924     1.58100
O2936       O  0.89674941  0.03226946  0.68804915    -0.88300
O2937       O  0.96950347  0.07442654  0.68596443    -0.75700
C2938       C  0.83403411  0.05783844  0.59987296     0.92500
O2939       O  0.93548823  0.15231138  0.68134400    -0.75500
O2940       O  0.85690198  0.08471353  0.60039409    -0.83000
Mg2941     Mg  0.96478413  0.13739320  0.70042765     1.58000
C2942       C  0.81102700  0.46745303  0.66094188     0.92400
O2943       O  0.99546515  0.12836855  0.72298121    -0.81300
H2944       H  0.91267755  0.00466314  0.67944367    -0.06600
C2945       C  0.84557374  0.06825915  0.66410603     0.87300
O2946       O  0.94984183  0.08888893  0.62487537    -0.75800
O2947       O  0.92520960  0.09472211  0.70901762    -0.88500
O2948       O  0.82487039  0.47847984  0.67878503    -0.81300
C2949       C  0.87047261  0.01173024  0.74181577     0.92500
C2950       C  0.99231779  0.10917808  0.73749343     0.92400
Mg2951     Mg  0.86096346  0.02826687  0.63655690     1.58000
O2952       O  0.83051698  0.03815690  0.61412719    -0.81300
O2953       O  0.88990260  0.01256070  0.65559403    -0.75500
O2954       O  0.89818078  0.03293656  0.73997904    -0.81300
O2955       O  0.50604503  0.18245405  0.69283633    -0.83100
O2956       O  0.92757245  0.13214785  0.59716602    -0.81400
C2957       C  0.90014130  0.01590025  0.67477071     0.86800
O2958       O  0.90070131  0.07042808  0.62811993    -0.88500
O2959       O  0.85549859  0.05038255  0.66467965    -0.88600
O2960       O  0.85704456  0.09122186  0.65166710    -0.75700
Mg2961     Mg  0.93226667  0.05610480  0.71205204     1.58000
O2962       O  0.85114251  0.00580862  0.72674961    -0.83000
H2963       H  0.99948471  0.10123440  0.66298919    -0.06800
O2964       O  0.92919975  0.13233955  0.64904764    -0.88300
H2965       H  0.91279681  0.15968476  0.65719451    -0.06600
H2966       H  0.91808102  0.04881873  0.61135199    -0.06800
C2967       C  0.92553234  0.14875431  0.66210268     0.86800
C2968       C  0.98083197  0.09735563  0.67349834     0.87400
C2969       C  0.92246775  0.06863395  0.62082146     0.87400
H2970       H  0.82718207  0.06466904  0.67478814    -0.06800
O2971       O  0.87601534  0.07511031  0.71286835    -0.75800
Mg2972     Mg  0.89398882  0.10933423  0.62535762     1.58000
H2973       H  0.90740274  0.11530580  0.72650365    -0.06800
C2974       C  0.51400423  0.19716331  0.67514406     0.92400
O2975       O  0.97482504  0.15771483  0.60996528    -0.83000
C2976       C  0.95557991  0.15247107  0.59502849     0.92500
O2977       O  0.96956976  0.08203213  0.73746563    -0.83000
Mg2978     Mg  0.85326048  0.02885965  0.69508659     1.58200
O2979       O  0.00086743  0.18356419  0.65583273    -0.81300
O2980       O  0.82042013  0.48235945  0.64345511    -0.83000
O2981       O  0.85707606  0.30430665  0.66130677    -0.88600
C2982       C  0.92460362  0.35644593  0.61835774     0.87400
Mg2983     Mg  0.85186146  0.32191869  0.69160960     1.58100
O2984       O  0.93393230  0.30191615  0.64732170    -0.88300
O2985       O  0.86135834  0.26664591  0.64783889    -0.75700
C2986       C  0.98831189  0.38897554  0.73699672     0.92500
O2987       O  0.88742296  0.37673465  0.65260605    -0.75500
O2988       O  0.96426353  0.39095647  0.73591883    -0.83000
Mg2989     Mg  0.86185746  0.33184813  0.63335797     1.58000
C2990       C  0.51941282  0.32790359  0.67098713     0.92400
O2991       O  0.83422111  0.29082453  0.61122511    -0.81300
H2992       H  0.92036204  0.25885085  0.65583651    -0.06600
C2993       C  0.97979599  0.38927687  0.67171147     0.87300
O2994       O  0.87699644  0.30142213  0.70991614    -0.75800
O2995       O  0.90365564  0.33271539  0.62609258    -0.88500
O2996       O  0.00478495  0.32494529  0.65594298    -0.81300
C2997       C  0.96245336  0.30976348  0.59361231     0.92500
C2998       C  0.84026511  0.27786740  0.59590358     0.92400
Mg2999     Mg  0.96779107  0.33524517  0.69902830     1.58000
O3000       O  0.99533140  0.37627039  0.72194848    -0.81300
O3001       O  0.94165325  0.29008138  0.67977998    -0.75500
O3002       O  0.93471361  0.30300789  0.59540419    -0.81300
O3003       O  0.81729443  0.33050206  0.64047589    -0.83100
O3004       O  0.89356454  0.36471351  0.73704120    -0.81400
C3005       C  0.93160741  0.28264279  0.66057904     0.86800
O3006       O  0.92566590  0.33401396  0.70677692    -0.88500
O3007       O  0.97153886  0.36181006  0.67090753    -0.88600
O3008       O  0.96677129  0.39933017  0.68409476    -0.75700
Mg3009     Mg  0.89968571  0.28849793  0.62259828     1.58000
O3010       O  0.98141296  0.32291595  0.60893531    -0.83000
H3011       H  0.82989505  0.26101052  0.67043660    -0.06800
O3012       O  0.89381970  0.36409605  0.68512548    -0.88300
H3013       H  0.90723784  0.40727945  0.67710558    -0.06600
H3014       H  0.91004957  0.29579497  0.72411095    -0.06800
C3015       C  0.89638115  0.38363359  0.67204022     0.86800
C3016       C  0.84844561  0.27676237  0.66025996     0.87400
C3017       C  0.90468768  0.31007060  0.71419487     0.87400
H3018       H  0.99813460  0.40501514  0.66138364    -0.06800
O3019       O  0.95235209  0.36487531  0.62226424    -0.75800
Mg3020     Mg  0.92867079  0.37800343  0.70964077     1.58000
H3021       H  0.91917746  0.37069395  0.60846570    -0.06800
C3022       C  0.80643704  0.33412899  0.65801564     0.92400
O3023       O  0.84665638  0.34140024  0.72339009    -0.83000
C3024       C  0.86523891  0.35590677  0.73865960     0.92500
O3025       O  0.86433687  0.27587487  0.59606950    -0.83000
Mg3026     Mg  0.97617178  0.34310829  0.64063081     1.58200
O3027       O  0.81942852  0.33615395  0.67611639    -0.81300
O3028       O  0.51040713  0.33300951  0.68891642    -0.83000
C3029       C  0.80946702  0.38961897  0.85065871     0.02000
C3030       C  0.80616151  0.41563144  0.84968402     0.02000
C3031       C  0.81483899  0.43351098  0.83105608    -0.18500
C3032       C  0.82640599  0.42557373  0.81313320     0.02000
C3033       C  0.82943050  0.39914443  0.81402650     0.02000
C3034       C  0.82087377  0.38142898  0.83286371    -0.18500
H3035       H  0.82279225  0.36101916  0.83360643     0.04000
H3036       H  0.81303472  0.45400295  0.83065280     0.04000
C3037       C  0.50417330  0.23636943  0.48089848     0.02000
C3038       C  0.50898626  0.26647797  0.48069553     0.02000
C3039       C  0.50353126  0.27840228  0.49959013    -0.18500
C3040       C  0.99180521  0.25916921  0.51924510     0.02000
C3041       C  0.98709049  0.22910088  0.51882794     0.02000
C3042       C  0.49455747  0.21926429  0.49994133    -0.18500
H3043       H  0.49194831  0.19661642  0.50018275     0.04000
H3044       H  0.50632771  0.30112728  0.49937625     0.04000
C3045       C  0.73133789  0.24527835  0.48153162     0.02000
C3046       C  0.76045244  0.27150844  0.48311868     0.02000
C3047       C  0.77861976  0.27610003  0.50143399    -0.18500
C3048       C  0.76788313  0.25477726  0.51831396     0.02000
C3049       C  0.73855744  0.22852812  0.51659454     0.02000
C3050       C  0.72046685  0.22409663  0.49834102    -0.18500
H3051       H  0.69810912  0.20383571  0.49704193     0.04000
H3052       H  0.80095617  0.29639010  0.50262534     0.04000
C3053       C  0.73669617  0.48946211  0.48040574     0.02000
C3054       C  0.76768072  0.49828301  0.48368777     0.02000
C3055       C  0.78128099  0.51012985  0.50380852    -0.18500
C3056       C  0.76137695  0.00775528  0.52274560     0.02000
C3057       C  0.73050012  0.99873826  0.51866318     0.02000
C3058       C  0.72040450  0.49399154  0.49699390    -0.18500
H3059       H  0.69678489  0.48772533  0.49434460     0.04000
H3060       H  0.80473924  0.51590147  0.50658244     0.04000
C3061       C  0.50073438  0.47239312  0.00145872     0.02000
C3062       C  0.52713065  0.50156211  0.00310916     0.02000
C3063       C  0.52522570  0.02857207  0.00218681     0.02000
C3064       C  0.49623686  0.02557999  0.99858896     0.02000
C3065       C  0.96996694  0.49673150  0.99563514     0.02000
C3066       C  0.97271284  0.47024877  0.99724065     0.02000
C3067       C  0.86267829  0.16782413  0.33838816     0.02000
C3068       C  0.83346349  0.14128514  0.34005793     0.02000
C3069       C  0.80708952  0.14404933  0.34209623     0.02000
C3070       C  0.80998428  0.17324474  0.34316338     0.02000
C3071       C  0.83916373  0.19970361  0.34239533     0.02000
C3072       C  0.86547329  0.19705642  0.33967824     0.02000
C3073       C  0.68888169  0.32824791  0.65846804     0.02000
C3074       C  0.69171368  0.35753315  0.65931637     0.02000
C3075       C  0.66558847  0.36034653  0.66242356     0.02000
C3076       C  0.63656841  0.33400022  0.66461397     0.02000
C3077       C  0.63362426  0.30470762  0.66370473     0.02000
C3078       C  0.65978402  0.30180388  0.66077614     0.02000
C3079       C  0.56492452  0.32933515  0.68833974    -0.26600
C3080       C  0.54988440  0.33020800  0.66947044    -0.14700
C3081       C  0.56536762  0.33580155  0.64946242     0.36000
C3082       C  0.59444311  0.33891195  0.64864781    -0.26000
C3083       C  0.60867374  0.33650044  0.66730359    -0.15300
C3084       C  0.59409058  0.33244496  0.68753103     0.37100
N3085       N  0.60822612  0.33172081  0.70751836    -0.89500
H3086       H  0.55391102  0.32603947  0.70389193     0.18200
H3087       H  0.60557549  0.34221682  0.63314642     0.18200
N3088       N  0.55196637  0.33878964  0.62987100    -0.88500
H3089       H  0.59474016  0.31021982  0.71443436     0.35500
H3090       H  0.62986243  0.33446287  0.70504869     0.40600
H3091       H  0.55042421  0.32228500  0.61890247     0.40300
H3092       H  0.56660792  0.36032641  0.62335440     0.35100
C3093       C  0.73532745  0.33534359  0.67647068    -0.26600
C3094       C  0.71727044  0.32624119  0.65782246    -0.14700
C3095       C  0.72880866  0.32028235  0.63872086     0.36000
C3096       C  0.75812176  0.32356786  0.63900264    -0.26000
C3097       C  0.77667337  0.33365716  0.65766646    -0.15300
C3098       C  0.76521164  0.34058557  0.67634663     0.37100
N3099       N  0.78420575  0.35400161  0.69497937    -0.89500
H3100       H  0.72659172  0.34029299  0.69098022     0.18200
H3101       H  0.76641055  0.31824768  0.62443336     0.18200
N3102       N  0.71197439  0.31164769  0.61874504    -0.88500
H3103       H  0.77217562  0.35782694  0.70716050     0.35500
H3104       H  0.80187427  0.37555633  0.69043426     0.40600
H3105       H  0.69094051  0.31058995  0.62031167     0.40300
H3106       H  0.70734835  0.28959012  0.61483173     0.35100
C3107       C  0.82079019  0.37938852  0.77650059    -0.26600
C3108       C  0.83906519  0.38813733  0.79501927    -0.14700
C3109       C  0.86531807  0.38514491  0.79548341     0.36000
C3110       C  0.87271702  0.37340814  0.77723169    -0.26000
C3111       C  0.85447319  0.36471266  0.75844057    -0.15300
C3112       C  0.82818652  0.36801002  0.75833183     0.37100
N3113       N  0.80925312  0.36154019  0.73970411    -0.89500
H3114       H  0.80054403  0.38158254  0.77611030     0.18200
H3115       H  0.89312447  0.37151904  0.77759395     0.18200
N3116       N  0.88450639  0.39438116  0.81436440    -0.88500
H3117       H  0.79952372  0.33838105  0.73582148     0.35500
H3118       H  0.82295317  0.37501821  0.72703725     0.40600
H3119       H  0.89369875  0.41793033  0.81631717     0.40300
H3120       H  0.90295104  0.39077898  0.81209707     0.35100
C3121       C  0.77522376  0.26243027  0.55804738    -0.26600
C3122       C  0.78688775  0.26032521  0.53799273    -0.14700
C3123       C  0.81551256  0.26193639  0.53712461     0.36000
C3124       C  0.83189496  0.26579248  0.55642436    -0.26000
C3125       C  0.82006027  0.26778931  0.57657732    -0.15300
C3126       C  0.79088782  0.26503768  0.57726899     0.37100
N3127       N  0.77695477  0.26487801  0.59745676    -0.89500
H3128       H  0.75361396  0.26194267  0.55884208     0.18200
H3129       H  0.85442663  0.26829549  0.55560685     0.18200
N3130       N  0.82807940  0.26029688  0.51666975    -0.88500
H3131       H  0.75615312  0.24440466  0.59847599     0.35500
H3132       H  0.77233733  0.28286333  0.59739989     0.40600
H3133       H  0.81379939  0.23866124  0.51005854     0.40300
H3134       H  0.84944264  0.26214490  0.51881660     0.35100
C3135       C  0.94808081  0.27814478  0.56006808    -0.26600
C3136       C  0.97146186  0.29943028  0.57370813    -0.14700
C3137       C  0.00207294  0.30772845  0.56900911     0.36000
C3138       C  0.00825353  0.29396029  0.55133283    -0.26000
C3139       C  0.98459485  0.27206755  0.53838348    -0.15300
C3140       C  0.95440829  0.26450839  0.54261979     0.37100
N3141       N  0.93006117  0.24308149  0.52907666    -0.89500
H3142       H  0.92444603  0.27131876  0.56316834     0.18200
H3143       H  0.53189807  0.30811725  0.54400674     0.18200
N3144       N  0.52473360  0.33727306  0.57794164    -0.88500
H3145       H  0.91898507  0.25402769  0.52256526     0.35500
H3146       H  0.91444683  0.22520448  0.53879620     0.40600
H3147       H  0.52170708  0.35606231  0.57554719     0.40300
H3148       H  0.54614196  0.34320075  0.57161245     0.35100
C3149       C  0.76820663  0.42413625  0.64075465    -0.26600
C3150       C  0.78193573  0.43753178  0.66069459    -0.14700
C3151       C  0.76584225  0.42383435  0.67991889     0.36000
C3152       C  0.73633396  0.39849423  0.67879371    -0.26000
C3153       C  0.72262387  0.38543757  0.65893818    -0.15300
C3154       C  0.73904791  0.39808102  0.63962345     0.37100
N3155       N  0.72679876  0.38567107  0.61864548    -0.89500
H3156       H  0.78004586  0.43415234  0.62578802     0.18200
H3157       H  0.72408869  0.38857146  0.69365658     0.18200
N3158       N  0.77898472  0.43573397  0.70070601    -0.88500
H3159       H  0.74096899  0.37845304  0.61168664     0.35500
H3160       H  0.70517400  0.36637410  0.61970640     0.40600
H3161       H  0.76460093  0.44160221  0.70895442     0.40300
H3162       H  0.77973184  0.41835280  0.70932645     0.35100
C3163       C  0.55243206  0.24038451  0.65291142    -0.26600
C3164       C  0.54344252  0.22676071  0.67343592    -0.14700
C3165       C  0.56452686  0.23934908  0.69077932     0.36000
C3166       C  0.59405935  0.26405864  0.68690873    -0.26000
C3167       C  0.60285914  0.27709410  0.66633635    -0.15300
C3168       C  0.58167900  0.26506839  0.64910304     0.37100
N3169       N  0.58925969  0.27642479  0.62737891    -0.89500
H3170       H  0.53694276  0.23116798  0.63929508     0.18200
H3171       H  0.61032877  0.27351495  0.70008843     0.18200
N3172       N  0.55622373  0.22690215  0.71215972    -0.88500
H3173       H  0.57496395  0.28492825  0.62297734     0.35500
H3174       H  0.61166752  0.29443075  0.62616650     0.40600
H3175       H  0.57464649  0.23821657  0.72281085     0.40300
H3176       H  0.53923411  0.23128280  0.71765031     0.35100
C3177       C  0.86790499  0.46119969  0.78882747    -0.26600
C3178       C  0.83698387  0.44649483  0.79436270    -0.14700
C3179       C  0.81699304  0.45326836  0.78289875     0.36000
C3180       C  0.82840422  0.47446247  0.76589809    -0.26000
C3181       C  0.85946782  0.48927350  0.76024598    -0.15300
C3182       C  0.87937818  0.48240520  0.77204723     0.37100
N3183       N  0.91340480  0.00410585  0.77131447    -0.89500
H3184       H  0.88339348  0.45634888  0.79779382     0.18200
H3185       H  0.81289925  0.47926472  0.75690348     0.18200
N3186       N  0.78519604  0.43845739  0.78850526    -0.88500
H3187       H  0.92184789  0.51933824  0.76948071     0.35500
H3188       H  0.91824176  0.00029837  0.75557246     0.40600
H3189       H  0.77578997  0.41510791  0.78539519     0.40300
H3190       H  0.77361077  0.44606602  0.77859841     0.35100
C3191       C  0.79922392  0.05259995  0.54402482    -0.26600
C3192       C  0.77645397  0.02179328  0.54357579    -0.14700
C3193       C  0.77013134  0.00425658  0.56242367     0.36000
C3194       C  0.78762572  0.01737117  0.58111525    -0.26000
C3195       C  0.81211456  0.04774558  0.58131787    -0.15300
C3196       C  0.81705542  0.06581157  0.56252288     0.37100
N3197       N  0.84048948  0.09722769  0.56123806    -0.89500
H3198       H  0.80394684  0.06624249  0.52954597     0.18200
H3199       H  0.78292311  0.00298735  0.59517545     0.18200
N3200       N  0.77252581  0.47292157  0.54847782    -0.88500
H3201       H  0.86180960  0.09880609  0.56269837     0.35500
H3202       H  0.83740674  0.10939324  0.57373108     0.40600
H3203       H  0.74873314  0.46206631  0.54830549     0.40300
H3204       H  0.77833785  0.46128002  0.55973641     0.35100
C3205       C  0.99847998  0.21901885  0.55592657    -0.26600
C3206       C  0.97831481  0.20961033  0.53837122    -0.14700
C3207       C  0.95149485  0.18079420  0.53890485     0.36000
C3208       C  0.94515789  0.16221884  0.55725658    -0.26000
C3209       C  0.96518862  0.17165290  0.57511628    -0.15300
C3210       C  0.99241951  0.20058873  0.57414417     0.37100
N3211       N  0.01427598  0.21239269  0.59139611    -0.89500
H3212       H  0.01946874  0.24084573  0.55534690     0.18200
H3213       H  0.92426753  0.14031277  0.55763121     0.18200
N3214       N  0.93087545  0.17048894  0.52078020    -0.88500
H3215       H  0.02280838  0.19761615  0.59398173     0.35500
H3216       H  0.00362958  0.21409520  0.60537260     0.40600
H3217       H  0.92207439  0.18519778  0.51922046     0.40300
H3218       H  0.91228781  0.14873111  0.52367508     0.35100
C3219       C  0.51580751  0.41253534  0.79305341    -0.26600
C3220       C  0.53670977  0.40234790  0.79594232    -0.14700
C3221       C  0.54197344  0.38702241  0.77901493     0.36000
C3222       C  0.52638648  0.38220388  0.75935526    -0.26000
C3223       C  0.50547634  0.39258230  0.75618419    -0.15300
C3224       C  0.50048932  0.40821035  0.77330589     0.37100
N3225       N  0.48023681  0.42010215  0.77073369    -0.89500
H3226       H  0.51217041  0.42488452  0.80597828     0.18200
H3227       H  0.53037409  0.36977217  0.74668392     0.18200
N3228       N  0.56322664  0.37639307  0.78177338    -0.88500
H3229       H  0.49267385  0.44368069  0.77348275     0.35500
H3230       H  0.46331251  0.41035526  0.78256049     0.40600
H3231       H  0.57992889  0.38639865  0.76982612     0.40300
H3232       H  0.55155693  0.35275889  0.77924431     0.35100
C3233       C  0.56041467  0.15780130  0.77379498    -0.26600
C3234       C  0.55091273  0.14323414  0.79385790    -0.14700
C3235       C  0.52242845  0.11601515  0.79524167     0.36000
C3236       C  0.00469146  0.10602699  0.77618822    -0.26000
C3237       C  0.51352888  0.11884649  0.75646217    -0.15300
C3238       C  0.54245451  0.14570141  0.75506669     0.37100
N3239       N  0.55349394  0.16077303  0.73466806    -0.89500
H3240       H  0.58188869  0.17900907  0.77275986     0.18200
H3241       H  0.98224570  0.08601639  0.77770607     0.18200
N3242       N  0.01188471  0.10405094  0.81548576    -0.88500
H3243       H  0.57498871  0.18027116  0.73645531     0.35500
H3244       H  0.55644949  0.14583927  0.72455268     0.40600
H3245       H  0.52671209  0.09352348  0.82076214     0.40300
H3246       H  0.99017385  0.08479726  0.81395412     0.35100
C3247       C  0.66080957  0.23013334  0.67786944    -0.26600
C3248       C  0.65100819  0.21244674  0.65880492    -0.14700
C3249       C  0.64283300  0.22414025  0.64077713     0.36000
C3250       C  0.64567877  0.25309201  0.64201306    -0.26000
C3251       C  0.65662252  0.27100562  0.66075309    -0.15300
C3252       C  0.66362937  0.25909159  0.67911622     0.37100
N3253       N  0.67312131  0.27531292  0.69935363    -0.89500
H3254       H  0.66701168  0.22172822  0.69196129     0.18200
H3255       H  0.63961558  0.26188917  0.62807335     0.18200
N3256       N  0.63123321  0.20722783  0.62109612    -0.88500
H3257       H  0.69552666  0.28040059  0.70235110     0.35500
H3258       H  0.67325898  0.29601207  0.69887432     0.40600
H3259       H  0.61248555  0.18586880  0.62470354     0.40300
H3260       H  0.64828294  0.20434919  0.61394072     0.35100
C3261       C  0.67276531  0.40440447  0.68454083    -0.26600
C3262       C  0.66899824  0.39115027  0.66401732    -0.14700
C3263       C  0.67011541  0.40788648  0.64549436     0.36000
C3264       C  0.67436101  0.43723189  0.64804828    -0.26000
C3265       C  0.67671350  0.45025240  0.66863709    -0.15300
C3266       C  0.67683055  0.43386858  0.68710851     0.37100
N3267       N  0.68070385  0.44688051  0.70836417    -0.89500
H3268       H  0.67259655  0.39163416  0.69862137     0.18200
H3269       H  0.67438324  0.44931531  0.63362708     0.18200
N3270       N  0.66659883  0.39583969  0.62391718    -0.88500
H3271       H  0.67956213  0.43152522  0.72011411     0.35500
H3272       H  0.70275237  0.46577358  0.70921157     0.40600
H3273       H  0.66233052  0.37340837  0.62390177     0.40300
H3274       H  0.64724170  0.39499371  0.61714945     0.35100
C3275       C  0.57972023  0.47457341  0.79018665    -0.26600
C3276       C  0.59471353  0.45881213  0.79639574    -0.14700
C3277       C  0.61681642  0.45862980  0.78271769     0.36000
C3278       C  0.62351602  0.47428503  0.76296703    -0.26000
C3279       C  0.60845587  0.49006378  0.75658282    -0.15300
C3280       C  0.58503729  0.99029303  0.77076777     0.37100
N3281       N  0.56797259  0.00453939  0.76387752    -0.89500
H3282       H  0.56249557  0.47429881  0.80072180     0.18200
H3283       H  0.64104749  0.47463706  0.75272972     0.18200
N3284       N  0.63184205  0.44196982  0.78874135    -0.88500
H3285       H  0.55241506  0.00257798  0.77576053     0.35500
H3286       H  0.55501460  0.99237808  0.75042174     0.40600
H3287       H  0.64525045  0.45265871  0.80236653     0.40300
H3288       H  0.64681267  0.44333214  0.77659038     0.35100
C3289       C  0.62266244  0.11626863  0.77396808    -0.26600
C3290       C  0.63954506  0.13906296  0.75859261    -0.14700
C3291       C  0.64519373  0.16905923  0.76235626     0.36000
C3292       C  0.63255622  0.17513002  0.78055405    -0.26000
C3293       C  0.61384313  0.15170421  0.79479613    -0.15300
C3294       C  0.60985904  0.12231744  0.79190943     0.37100
N3295       N  0.59275775  0.09818227  0.80688879    -0.89500
H3296       H  0.61829377  0.09314635  0.77172346     0.18200
H3297       H  0.63679003  0.19812102  0.78333250     0.18200
N3298       N  0.66333859  0.19333374  0.74771848    -0.88500
H3299       H  0.57060670  0.09462089  0.80757017     0.35500
H3300       H  0.60275577  0.10513444  0.82217555     0.40600
H3301       H  0.68167517  0.21055170  0.75637114     0.40300
H3302       H  0.64999513  0.20229279  0.74196052     0.35100
C3303       C  0.70323111  0.04147044  0.55424863    -0.26600
C3304       C  0.68414207  0.01863092  0.56895025    -0.14700
C3305       C  0.67751028  0.98816824  0.56500352     0.36000
C3306       C  0.69138304  0.98196639  0.54761605    -0.26000
C3307       C  0.71252937  0.00545278  0.53437863    -0.15300
C3308       C  0.71763307  0.03539515  0.53723164     0.37100
N3309       N  0.73740270  0.06028009  0.52335756    -0.89500
H3310       H  0.70838354  0.06484867  0.55649779     0.18200
H3311       H  0.70637640  0.46872861  0.55023939     0.18200
N3312       N  0.67958040  0.47090333  0.58552742    -0.88500
H3313       H  0.75596323  0.07601253  0.53263607     0.35500
H3314       H  0.74615830  0.05323409  0.51074774     0.40600
H3315       H  0.65626927  0.46217940  0.58815423     0.40300
H3316       H  0.69188290  0.48135716  0.59959717     0.35100
C3317       C  0.72957538  0.16741141  0.55589266    -0.26600
C3318       C  0.71084949  0.16977755  0.57164194    -0.14700
C3319       C  0.69882078  0.18940363  0.56783542     0.36000
C3320       C  0.70673627  0.20680605  0.54890276    -0.26000
C3321       C  0.72664488  0.20547307  0.53388191    -0.15300
C3322       C  0.73758339  0.18495958  0.53706767     0.37100
N3323       N  0.75646883  0.18106299  0.52151311    -0.89500
H3324       H  0.73825924  0.15188691  0.55821705     0.18200
H3325       H  0.69836530  0.22253312  0.54622018     0.18200
N3326       N  0.67855962  0.19164839  0.58304448    -0.88500
H3327       H  0.77787158  0.18881469  0.52860817     0.35500
H3328       H  0.75976948  0.19407806  0.50766516     0.40600
H3329       H  0.65816549  0.17070093  0.58294885     0.40300
H3330       H  0.67297709  0.20803329  0.57811647     0.35100
C3331       C  0.48979695  0.06381992  0.97755650    -0.26600
C3332       C  0.99210904  0.05303568  0.99540182    -0.14700
C3333       C  0.98987136  0.06736710  0.01443524     0.36000
C3334       C  0.98588564  0.09280667  0.01276349    -0.26000
C3335       C  0.98440458  0.10487655  0.99259096    -0.15300
C3336       C  0.48674078  0.08982332  0.97573943     0.37100
N3337       N  0.48393788  0.09996013  0.95471887    -0.89500
H3338       H  0.49006544  0.05195220  0.96301479     0.18200
H3339       H  0.98492048  0.10376572  0.02758482     0.18200
N3340       N  0.99211104  0.05727551  0.03571306    -0.88500
H3341       H  0.46478890  0.08214231  0.94713969     0.35500
H3342       H  0.50320504  0.10434323  0.94574154     0.40600
H3343       H  0.99528173  0.03843023  0.03523331     0.40300
H3344       H  0.97136292  0.05027396  0.04355940     0.35100
C3345       C  0.00789031  0.40638579  0.02461327    -0.26600
C3346       C  0.51184352  0.39291800  0.00364682    -0.14700
C3347       C  0.50936078  0.40539172  0.98376328     0.36000
C3348       C  0.50488604  0.43060715  0.98368094    -0.26000
C3349       C  0.50373517  0.44455348  0.00292547    -0.15300
C3350       C  0.00454090  0.43234476  0.02392694     0.37100
N3351       N  0.00026164  0.44412955  0.04400564    -0.89500
H3352       H  0.00642417  0.39587729  0.04012973     0.18200
H3353       H  0.50237066  0.43948790  0.96837743     0.18200
N3354       N  0.51076464  0.39234411  0.96350811    -0.88500
H3355       H  0.01970070  0.45081112  0.05350733     0.35500
H3356       H  0.99843598  0.46360114  0.04167188     0.40600
H3357       H  0.52875418  0.40928360  0.95455195     0.40300
H3358       H  0.49046193  0.38579383  0.95509628     0.35100
C3359       C  0.52601048  0.37213743  0.88080994    -0.26600
C3360       C  0.55389153  0.37956896  0.87103747    -0.14700
C3361       C  0.56960700  0.36457223  0.87781396     0.36000
C3362       C  0.55784921  0.34359341  0.89495214    -0.26000
C3363       C  0.53052938  0.33702246  0.90544283    -0.15300
C3364       C  0.51428857  0.35132030  0.89791336     0.37100
N3365       N  0.98256924  0.34703545  0.90852660    -0.89500
H3366       H  0.51335985  0.38290518  0.87520209     0.18200
H3367       H  0.57055154  0.33284807  0.90047406     0.18200
N3368       N  0.59728426  0.37051955  0.86717219    -0.88500
H3369       H  0.98549746  0.35390590  0.92469158     0.35500
H3370       H  0.96802385  0.32338372  0.90766400     0.40600
H3371       H  0.59176826  0.36297400  0.85118305     0.40300
H3372       H  0.60615652  0.35778560  0.87417126     0.35100
C3373       C  0.58809787  0.21802407  0.87587696    -0.26600
C3374       C  0.56999020  0.18731810  0.86944882    -0.14700
C3375       C  0.54500535  0.16751405  0.88247430     0.36000
C3376       C  0.53864386  0.17865297  0.90139184    -0.26000
C3377       C  0.55642944  0.20949496  0.90776179    -0.15300
C3378       C  0.58168970  0.22931731  0.89486353     0.37100
N3379       N  0.60101142  0.26066573  0.90120141    -0.89500
H3380       H  0.60763559  0.23315874  0.86613124     0.18200
H3381       H  0.51908540  0.16306942  0.91094808     0.18200
N3382       N  0.52599603  0.13585280  0.87711124    -0.88500
H3383       H  0.61846270  0.27213856  0.88994207     0.35500
H3384       H  0.61160015  0.26076004  0.91574496     0.40600
H3385       H  0.53969705  0.12587001  0.87569855     0.40300
H3386       H  0.01745684  0.13283871  0.86258082     0.35100
C3387       C  0.56560265  0.07061903  0.02454496    -0.26600
C3388       C  0.55274065  0.05940753  0.00413541    -0.14700
C3389       C  0.56599939  0.07756980  0.98581285     0.36000
C3390       C  0.59212865  0.10638722  0.98807773    -0.26000
C3391       C  0.60589690  0.11755783  0.00842087    -0.15300
C3392       C  0.59198320  0.09943342  0.02688221     0.37100
N3393       N  0.60465917  0.10981643  0.04799141    -0.89500
H3394       H  0.55526074  0.05676138  0.03873510     0.18200
H3395       H  0.60219498  0.11956800  0.97358316     0.18200
N3396       N  0.55345935  0.06649345  0.96476249    -0.88500
H3397       H  0.60977896  0.09385649  0.05455969     0.35500
H3398       H  0.58796678  0.11031902  0.05764931     0.40600
H3399       H  0.57041088  0.06623244  0.95527589     0.40300
H3400       H  0.54817705  0.08214179  0.95785135     0.35100
C3401       C  0.90504910  0.39804887  0.97455055    -0.26600
C3402       C  0.89325944  0.38035923  0.99335151    -0.14700
C3403       C  0.90916865  0.39197341  0.01312176     0.36000
C3404       C  0.93435485  0.42151557  0.01402035    -0.26000
C3405       C  0.94535009  0.43937447  0.99545371    -0.15300
C3406       C  0.93115953  0.42723773  0.97545183     0.37100
N3407       N  0.94322317  0.44449124  0.95606077    -0.89500
H3408       H  0.89362460  0.38960425  0.95915322     0.18200
H3409       H  0.94532405  0.43059958  0.02942950     0.18200
N3410       N  0.89983902  0.37411569  0.03247181    -0.88500
H3411       H  0.92595883  0.44696188  0.94872487     0.35500
H3412       H  0.94884120  0.43176851  0.94560427     0.40600
H3413       H  0.91816991  0.37190524  0.03803367     0.40300
H3414       H  0.89501669  0.38606218  0.04417773     0.35100
C3415       C  0.77127205  0.34610829  0.87201995    -0.26600
C3416       C  0.80085492  0.37100371  0.87043917    -0.14700
C3417       C  0.82013762  0.38082514  0.88862401     0.36000
C3418       C  0.80939414  0.36534319  0.90824688    -0.26000
C3419       C  0.77962809  0.34020248  0.91008585    -0.15300
C3420       C  0.76012359  0.33088253  0.89170770     0.37100
N3421       N  0.72918170  0.30604170  0.89291791    -0.89500
H3422       H  0.75641140  0.33940118  0.85799789     0.18200
H3423       H  0.82460620  0.37277082  0.92207624     0.18200
N3424       N  0.85038372  0.40678968  0.88709454    -0.88500
H3425       H  0.71858875  0.30153532  0.87777216     0.35500
H3426       H  0.71719210  0.31315710  0.90286671     0.40600
H3427       H  0.86273405  0.40109858  0.87636545     0.40300
H3428       H  0.86159192  0.41140505  0.90200939     0.35100
C3429       C  0.61471543  0.16250641  0.88762706    -0.26600
C3430       C  0.62624556  0.18351117  0.87064985    -0.14700
C3431       C  0.65549534  0.20968459  0.87252386     0.36000
C3432       C  0.67243089  0.21400942  0.89137152    -0.26000
C3433       C  0.66071138  0.19345947  0.90879539    -0.15300
C3434       C  0.63130306  0.16722417  0.90668545     0.37100
N3435       N  0.61717280  0.14531703  0.92361253    -0.89500
H3436       H  0.59245038  0.14222032  0.88607662     0.18200
H3437       H  0.69476134  0.23430860  0.89254402     0.18200
N3438       N  0.66854798  0.23259637  0.85595808    -0.88500
H3439       H  0.61503178  0.15632584  0.93726763     0.35500
H3440       H  0.63081396  0.13576962  0.92722509     0.40600
H3441       H  0.65364677  0.22781931  0.84298267     0.40300
H3442       H  0.67195380  0.25311572  0.86261990     0.35100
C3443       C  0.92772677  0.99704929  0.97288200    -0.26600
C3444       C  0.93866572  0.99380454  0.99299096    -0.14700
C3445       C  0.92282771  0.49225886  0.01323876     0.36000
C3446       C  0.89708855  0.49565622  0.01172528    -0.26000
C3447       C  0.88647093  0.00094814  0.99033854    -0.15300
C3448       C  0.90172078  0.00042390  0.97128041     0.37100
N3449       N  0.89114044  0.00365718  0.95043100    -0.89500
H3450       H  0.94020774  0.99799776  0.95841748     0.18200
H3451       H  0.88476639  0.49386497  0.02646439     0.18200
N3452       N  0.93162213  0.48733142  0.03430493    -0.88500
H3453       H  0.90442127  0.00197955  0.93814896     0.35500
H3454       H  0.89435167  0.02573368  0.94960652     0.40600
H3455       H  0.95117181  0.48536816  0.03379418     0.40300
H3456       H  0.91406346  0.46641209  0.03994354     0.35100
C3457       C  0.59764868  0.99767775  0.98924280    -0.26600
C3458       C  0.60919380  0.49647338  0.00831089    -0.14700
C3459       C  0.59637167  0.50198776  0.02693972     0.36000
C3460       C  0.57048806  0.50531701  0.02491936    -0.26000
C3461       C  0.55734984  0.50357353  0.00464969    -0.15300
C3462       C  0.57275180  0.00235241  0.98733544     0.37100
N3463       N  0.56192001  0.00445709  0.96637809    -0.89500
H3464       H  0.60860146  0.99639060  0.97455596     0.18200
H3465       H  0.56016159  0.50853303  0.03927815     0.18200
N3466       N  0.60927740  0.50406901  0.04791427    -0.88500
H3467       H  0.55624746  0.98440393  0.95785521     0.35500
H3468       H  0.57989977  0.02260799  0.95823724     0.40600
H3469       H  0.59239383  0.48743485  0.05774194     0.40300
H3470       H  0.61540226  0.52550376  0.05444803     0.35100
C3471       C  0.64223635  0.44370631  0.87135956    -0.26600
C3472       C  0.61309999  0.44050307  0.87242915    -0.14700
C3473       C  0.60468155  0.45031811  0.89115801     0.33300
C3474       C  0.62506813  0.46225053  0.90874790    -0.26000
C3475       C  0.65404861  0.46465024  0.90805560    -0.15300
C3476       C  0.66261422  0.45542068  0.88890737     0.37100
N3477       N  0.69203276  0.45797903  0.88706013    -0.89500
H3478       H  0.64916709  0.43687399  0.85678437     0.18200
H3479       H  0.61517798  0.96768842  0.92548436     0.18200
N3480       N  0.57562477  0.44868264  0.89221158    -0.88500
H3481       H  0.70320293  0.47189012  0.87381558     0.35500
H3482       H  0.68883420  0.43622884  0.88388283     0.40600
H3483       H  0.57940070  0.47073876  0.89494174     0.40300
H3484       H  0.56099754  0.93368713  0.90792429     0.35100
C3485       C  0.80642389  0.45528476  0.90139380    -0.26600
C3486       C  0.77611965  0.43709779  0.90841712    -0.14700
C3487       C  0.75510552  0.41297294  0.89514654     0.36000
C3488       C  0.76484548  0.40719571  0.87537688    -0.26000
C3489       C  0.79526477  0.42508436  0.86870906    -0.15300
C3490       C  0.81602888  0.44957982  0.88163040     0.37100
N3491       N  0.84702639  0.46837646  0.87484615    -0.89500
H3492       H  0.82271275  0.47444778  0.91109883     0.18200
H3493       H  0.74881950  0.38820671  0.86543274     0.18200
N3494       N  0.72415236  0.39388119  0.90188391    -0.88500
H3495       H  0.86127250  0.46759943  0.88677041     0.35500
H3496       H  0.85148516  0.49089026  0.87385736     0.40600
H3497       H  0.71977332  0.37136368  0.90247547     0.40300
H3498       H  0.70988892  0.39498938  0.89012128     0.35100
C3499       C  0.96427632  0.32113293  0.09882304    -0.26600
C3500       C  0.94509550  0.29044144  0.09257293    -0.14700
C3501       C  0.91884016  0.27203080  0.10506143     0.36000
C3502       C  0.91260237  0.28466191  0.12344478    -0.26000
C3503       C  0.93211018  0.31522987  0.12969624    -0.15300
C3504       C  0.95813619  0.33347629  0.11723191     0.37100
N3505       N  0.97819871  0.36475807  0.12306799    -0.89500
H3506       H  0.98463423  0.33563288  0.08958005     0.18200
H3507       H  0.89239763  0.27064153  0.13296544     0.18200
N3508       N  0.89845322  0.24081248  0.09894073    -0.88500
H3509       H  0.97935288  0.37839766  0.11003102     0.35500
H3510       H  0.99998371  0.36776251  0.12553357     0.40600
H3511       H  0.88890225  0.24098557  0.08398590     0.40300
H3512       H  0.88034391  0.23044198  0.10984770     0.35100
C3513       C  0.84829011  0.29739665  0.13032885    -0.26600
C3514       C  0.87762257  0.32289167  0.12964591    -0.14700
C3515       C  0.88715966  0.34164856  0.11125129     0.36000
C3516       C  0.86766007  0.33337755  0.09323623    -0.26000
C3517       C  0.83862872  0.30686498  0.09335671    -0.15300
C3518       C  0.82877013  0.28906042  0.11251140     0.37100
N3519       N  0.79915374  0.26253052  0.11460454    -0.89500
H3520       H  0.84070570  0.28348060  0.14476833     0.18200
H3521       H  0.87555620  0.34737620  0.07886930     0.18200
N3522       N  0.91657979  0.36894785  0.11097808    -0.88500
H3523       H  0.79747369  0.24545336  0.10420243     0.35500
H3524       H  0.78260051  0.26833724  0.11064665     0.40600
H3525       H  0.91648840  0.38375917  0.12278485     0.40300
H3526       H  0.92023955  0.38015272  0.09618064     0.35100
C3527       C  0.83477117  0.10098691  0.31815889    -0.26600
C3528       C  0.83006949  0.11045278  0.33836139    -0.14700
C3529       C  0.82075312  0.08999771  0.35600193     0.36000
C3530       C  0.81701636  0.06090589  0.35296115    -0.26000
C3531       C  0.82298528  0.05168487  0.33295106    -0.15300
C3532       C  0.83113185  0.07181544  0.31513103     0.37100
N3533       N  0.83647530  0.06308867  0.29416814    -0.89500
H3534       H  0.84122751  0.11653795  0.30461759     0.18200
H3535       H  0.81047966  0.04580953  0.36676967     0.18200
N3536       N  0.81537231  0.09790658  0.37726537    -0.88500
H3537       H  0.84367135  0.08111230  0.28323160     0.35500
H3538       H  0.81553408  0.04559148  0.28837605     0.40600
H3539       H  0.81958360  0.12029151  0.37803332     0.40300
H3540       H  0.83093921  0.09682163  0.38783290     0.35100
C3541       C  0.85324751  0.27743908  0.36137092    -0.26600
C3542       C  0.84922579  0.28948042  0.34199576    -0.14700
C3543       C  0.84144518  0.27123977  0.32297172     0.36000
C3544       C  0.83822268  0.24221483  0.32376762    -0.26000
C3545       C  0.84215691  0.23037644  0.34308443    -0.15300
C3546       C  0.84967659  0.24813029  0.36221098     0.37100
N3547       N  0.85379895  0.23733475  0.38269661    -0.89500
H3548       H  0.85883354  0.29073163  0.37616341     0.18200
H3549       H  0.83250063  0.22863657  0.30909496     0.18200
N3550       N  0.83596908  0.28104218  0.30264665    -0.88500
H3551       H  0.83707427  0.23622864  0.39317578     0.35500
H3552       H  0.85023408  0.21521853  0.38153344     0.40600
H3553       H  0.85594400  0.30069843  0.29804640     0.40300
H3554       H  0.81825177  0.28586583  0.30440274     0.35100
C3555       C  0.82014723  0.50849336  0.43635717    -0.26600
C3556       C  0.81264422  0.47805129  0.43241528    -0.14700
C3557       C  0.79199701  0.45502158  0.44675948     0.36000
C3558       C  0.77875566  0.46270649  0.46364357    -0.26000
C3559       C  0.78526939  0.49276250  0.46688446    -0.15300
C3560       C  0.80681495  0.51617410  0.45338199     0.37100
N3561       N  0.81518680  0.54770720  0.45606126    -0.89500
H3562       H  0.83590307  0.52649448  0.42574629     0.18200
H3563       H  0.76235142  0.44475222  0.47401485     0.18200
N3564       N  0.78275771  0.42336261  0.44423161    -0.88500
H3565       H  0.80818426  0.55432218  0.44219551     0.35500
H3566       H  0.80387889  0.55082217  0.46904801     0.40600
H3567       H  0.80194074  0.42076859  0.44550694     0.40300
H3568       H  0.77242630  0.41575068  0.42910887     0.35100
C3569       C  0.77193182  0.33450388  0.44457647    -0.26600
C3570       C  0.78751965  0.32972878  0.42755220    -0.14700
C3571       C  0.79558434  0.30675215  0.42978193     0.36000
C3572       C  0.78784219  0.28924022  0.44862819    -0.26000
C3573       C  0.77195178  0.29381702  0.46532573    -0.15300
C3574       C  0.76409485  0.31691794  0.46342096     0.37100
N3575       N  0.74786466  0.32289821  0.48003386    -0.89500
H3576       H  0.76577901  0.35213601  0.44333851     0.18200
H3577       H  0.79374077  0.27143810  0.45005391     0.18200
N3578       N  0.81186562  0.30114440  0.41312521    -0.88500
H3579       H  0.76208450  0.34521162  0.48558993     0.35500
H3580       H  0.74338596  0.30868836  0.49335615     0.40600
H3581       H  0.79875497  0.27834032  0.40820900     0.40300
H3582       H  0.83226442  0.30421164  0.41970362     0.35100
C3583       C  0.88320190  0.33378900  0.22212163    -0.26600
C3584       C  0.89557838  0.35544871  0.20566114    -0.14700
C3585       C  0.89532362  0.38297393  0.20751207     0.36000
C3586       C  0.88335834  0.38884743  0.22614365    -0.26000
C3587       C  0.87158960  0.36755780  0.24315531    -0.15300
C3588       C  0.87141343  0.33958979  0.24086018     0.37100
N3589       N  0.86007541  0.31721762  0.25761902    -0.89500
H3590       H  0.88277544  0.31223044  0.22045327     0.18200
H3591       H  0.88391775  0.41051250  0.22740312     0.18200
N3592       N  0.90762051  0.40515506  0.19060264    -0.88500
H3593       H  0.87769425  0.31325929  0.26223809     0.35500
H3594       H  0.84235968  0.29686828  0.25121043     0.40600
H3595       H  0.89041100  0.40927460  0.18522253     0.40300
H3596       H  0.92517955  0.42548450  0.19715725     0.35100
C3597       C  0.73329914  0.07497455  0.32285609    -0.26600
C3598       C  0.71746362  0.06327361  0.34239337    -0.14700
C3599       C  0.73080478  0.07942417  0.36176412     0.36000
C3600       C  0.75988623  0.10563882  0.36134957    -0.26000
C3601       C  0.77605192  0.11632321  0.34196641    -0.15300
C3602       C  0.76232782  0.10122531  0.32253885     0.37100
N3603       N  0.77793417  0.11246486  0.30244883    -0.89500
H3604       H  0.72364500  0.06317803  0.30773604     0.18200
H3605       H  0.77011021  0.11740312  0.37634010     0.18200
N3606       N  0.71504006  0.06938879  0.38191784    -0.88500
H3607       H  0.76422532  0.11729304  0.29244489     0.35500
H3608       H  0.78020865  0.09502412  0.29514341     0.40600
H3609       H  0.72871959  0.06533759  0.39252274     0.40300
H3610       H  0.71252313  0.08717310  0.38833572     0.35100
C3611       C  0.90349603  0.23949274  0.31688285    -0.26600
C3612       C  0.89606427  0.22496501  0.33704569    -0.14700
C3613       C  0.91833085  0.23594783  0.35363034     0.36000
C3614       C  0.94732346  0.26084639  0.34953044    -0.26000
C3615       C  0.95477390  0.27613015  0.32954103    -0.15300
C3616       C  0.93248581  0.26493255  0.31289426     0.37100
N3617       N  0.93891485  0.27964930  0.29218934    -0.89500
H3618       H  0.88652700  0.23069748  0.30410879     0.18200
H3619       H  0.96387186  0.26892316  0.36256981     0.18200
N3620       N  0.91243017  0.22278923  0.37486635    -0.88500
H3621       H  0.91959777  0.26942836  0.28223283     0.35500
H3622       H  0.95534386  0.27599448  0.28470014     0.40600
H3623       H  0.88999845  0.20503552  0.37636612     0.40300
H3624       H  0.91494798  0.23966724  0.38585310     0.35100
C3625       C  0.55306359  0.33357190  0.44286171    -0.26600
C3626       C  0.53370247  0.32484897  0.42468685    -0.14700
C3627       C  0.50657211  0.29595980  0.42487642     0.36000
C3628       C  0.49934376  0.27695738  0.44301793    -0.26000
C3629       C  0.51869788  0.28586301  0.46104759    -0.15300
C3630       C  0.54575884  0.31443547  0.46092776     0.37100
N3631       N  0.56601545  0.32399296  0.47913141    -0.89500
H3632       H  0.57412558  0.35534413  0.44310219     0.18200
H3633       H  0.47818506  0.25528189  0.44313069     0.18200
N3634       N  0.48641089  0.28542544  0.40661351    -0.88500
H3635       H  0.56851858  0.34459919  0.48489377     0.35500
H3636       H  0.58734914  0.32813134  0.47379023     0.40600
H3637       H  0.46487087  0.28096690  0.41170918     0.40300
H3638       H  0.48443427  0.26485513  0.40126775     0.35100
C3639       C  0.67870626  0.43529158  0.43938523    -0.26600
C3640       C  0.68617702  0.45420309  0.42112666    -0.14700
C3641       C  0.71285921  0.48343056  0.42180835     0.36000
C3642       C  0.72951390  0.49390216  0.44119275    -0.26000
C3643       C  0.72073830  0.47566814  0.45973713    -0.15300
C3644       C  0.69575386  0.44545792  0.45854824     0.37100
N3645       N  0.68660387  0.42467749  0.47648198    -0.89500
H3646       H  0.65870436  0.41267555  0.43914544     0.18200
H3647       H  0.74891931  0.51685722  0.44206802     0.18200
N3648       N  0.72259212  0.50274240  0.40307282    -0.88500
H3649       H  0.68817525  0.40571244  0.47152056     0.35500
H3650       H  0.70155075  0.43403128  0.48954879     0.40600
H3651       H  0.72859541  0.49188676  0.39124418     0.40300
H3652       H  0.74231166  0.52354166  0.40645259     0.35100
C3653       C  0.97121319  0.35115331  0.24075236    -0.26600
C3654       C  0.99037234  0.38288908  0.24384550    -0.14700
C3655       C  0.99174342  0.40278740  0.22723822     0.36000
C3656       C  0.97413353  0.39053818  0.20829182    -0.26000
C3657       C  0.95533010  0.35890817  0.20531555    -0.15300
C3658       C  0.95405275  0.33894797  0.22176716     0.37100
N3659       N  0.93531998  0.30627789  0.22002594    -0.89500
H3660       H  0.96991584  0.33533304  0.25304648     0.18200
H3661       H  0.97470317  0.40580846  0.19581184     0.18200
N3662       N  0.01084575  0.43530543  0.22956913    -0.88500
H3663       H  0.94982126  0.29710311  0.22027849     0.35500
H3664       H  0.92360596  0.29963408  0.20533838     0.40600
H3665       H  0.00197385  0.44228895  0.24218934     0.40300
H3666       H  0.00981251  0.44653024  0.21570655     0.35100
C3667       C  0.94603256  0.15715405  0.10645904    -0.26600
C3668       C  0.96863779  0.15863411  0.09240818    -0.14700
C3669       C  0.97979250  0.13823861  0.09586000     0.36000
C3670       C  0.96809725  0.11699995  0.11285474    -0.26000
C3671       C  0.94490189  0.11508701  0.12627338    -0.15300
C3672       C  0.93407669  0.13555516  0.12316552     0.37100
N3673       N  0.91101009  0.13456456  0.13709012    -0.89500
H3674       H  0.93683290  0.17224345  0.10414859     0.18200
H3675       H  0.97709345  0.10180021  0.11552194     0.18200
N3676       N  0.00299758  0.13892865  0.08223268    -0.88500
H3677       H  0.41103080  0.14949210  0.14064388     0.35500
H3678       H  0.89234706  0.13069730  0.12752967     0.40600
H3679       H  0.99438960  0.11734697  0.07513030     0.40300
H3680       H  0.02158880  0.14300322  0.09195335     0.35100
C3681       C  0.85814221  0.05686058  0.12630255    -0.26600
C3682       C  0.88513745  0.05554080  0.12548040    -0.14700
C3683       C  0.89072532  0.04203237  0.10727489     0.36000
C3684       C  0.86936778  0.03063707  0.09032140    -0.26000
C3685       C  0.84225220  0.03203360  0.09094280    -0.15300
C3686       C  0.83662236  0.04528725  0.10937782     0.37100
N3687       N  0.80920308  0.04708546  0.11097532    -0.89500
H3688       H  0.85373493  0.06680664  0.14042115     0.18200
H3689       H  0.87431795  0.02079810  0.07639990     0.18200
N3690       N  0.91723570  0.03863740  0.10559219    -0.88500
H3691       H  0.80915421  0.05829290  0.12519934     0.35500
H3692       H  0.79085717  0.02476459  0.11211627     0.40600
H3693       H  0.93094954  0.04651396  0.11937105     0.40300
H3694       H  0.93032764  0.05211400  0.09269689     0.35100
C3695       C  0.88100275  0.03883081  0.21458806    -0.26600
C3696       C  0.90311359  0.03741081  0.20180860    -0.14700
C3697       C  0.91773532  0.02183697  0.20959139     0.36000
C3698       C  0.91081945  0.00899805  0.23035022    -0.26000
C3699       C  0.88918246  0.01093233  0.24357731    -0.15300
C3700       C  0.87396873  0.02598997  0.23529793     0.37100
N3701       N  0.85569322  0.52944423  0.24934291    -0.89500
H3702       H  0.86994430  0.05107918  0.20872484     0.18200
H3703       H  0.92234620  0.99719072  0.23614988     0.18200
N3704       N  0.93988043  0.01951629  0.19643419    -0.88500
H3705       H  0.86084206  0.04058397  0.26151350     0.35500
H3706       H  0.83831087  0.50764851  0.25367613     0.40600
H3707       H  0.92855734  0.00660434  0.18275047     0.40300
H3708       H  0.94883041  0.00759627  0.20453509     0.35100
C3709       C  0.73383658  0.14325709  0.12501250    -0.26600
C3710       C  0.70365835  0.12995813  0.13225931    -0.14700
C3711       C  0.68162754  0.13187098  0.11953757     0.36000
C3712       C  0.69015183  0.14643920  0.09942690    -0.26000
C3713       C  0.72031336  0.15932888  0.09185213    -0.15300
C3714       C  0.74235786  0.15749731  0.10493053     0.37100
N3715       N  0.77323934  0.16890014  0.09811985    -0.89500
H3716       H  0.75087184  0.14211980  0.13495788     0.18200
H3717       H  0.67323597  0.14835069  0.08985773     0.18200
N3718       N  0.65085700  0.11938822  0.12720394    -0.88500
H3719       H  0.78427859  0.19265374  0.09698139     0.35500
H3720       H  0.77303826  0.15951806  0.08299472     0.40600
H3721       H  0.64125085  0.09574333  0.12830859     0.40300
H3722       H  0.63761524  0.12322060  0.11603101     0.35100
C3723       C  0.73255204  0.08057398  0.12953555    -0.26600
C3724       C  0.70197989  0.07174354  0.13333646    -0.14700
C3725       C  0.67994006  0.05588563  0.11706556     0.36000
C3726       C  0.68928925  0.05008173  0.09717988    -0.26000
C3727       C  0.72011247  0.05946897  0.09303218    -0.15300
C3728       C  0.74206730  0.07541571  0.10942860     0.37100
N3729       N  0.77398083  0.08678158  0.10561848    -0.89500
H3730       H  0.74934031  0.09304320  0.14201081     0.18200
H3731       H  0.67199664  0.03752306  0.08502448     0.18200
N3732       N  0.64801372  0.04544668  0.12006260    -0.88500
H3733       H  0.78686221  0.09746786  0.11945351     0.35500
H3734       H  0.78100586  0.10370404  0.09380052     0.40600
H3735       H  0.64350444  0.04988115  0.13569678     0.40300
H3736       H  0.63618856  0.02166726  0.11839415     0.35100
C3737       C  0.63434059  0.03931663  0.21311790    -0.26600
C3738       C  0.66575666  0.05584526  0.20909644    -0.14700
C3739       C  0.68556144  0.05005358  0.22155717     0.36000
C3740       C  0.66949617  0.52552214  0.23632139    -0.26000
C3741       C  0.64234955  0.01229806  0.24277642    -0.15300
C3742       C  0.62242237  0.01743178  0.22964188     0.37100
N3743       N  0.59013542  0.00095402  0.23318444    -0.89500
H3744       H  0.61891872  0.04309488  0.20313992     0.18200
H3745       H  0.68469886  0.51988568  0.24491465     0.18200
N3746       N  0.71763023  0.06587575  0.21713388    -0.88500
H3747       H  0.57952799  0.98926481  0.21893010     0.35500
H3748       H  0.58300772  0.01677026  0.23629654     0.40600
H3749       H  0.72916942  0.07753755  0.23115948     0.40300
H3750       H  0.71672210  0.54203175  0.20926494     0.35100
C3751       C  0.73832476  0.17436022  0.36033390    -0.26600
C3752       C  0.72477792  0.17295739  0.34015519    -0.14700
C3753       C  0.74061575  0.17354247  0.32115989     0.36000
C3754       C  0.76883801  0.17479276  0.32276384    -0.26000
C3755       C  0.78189405  0.17562000  0.34289545    -0.15300
C3756       C  0.76649584  0.17551331  0.36197691     0.37100
N3757       N  0.77857111  0.17654440  0.38320712    -0.89500
H3758       H  0.72690710  0.17439682  0.37512884     0.18200
H3759       H  0.78050011  0.17462634  0.30812003     0.18200
N3760       N  0.72841515  0.17306576  0.30016698    -0.88500
H3761       H  0.76284514  0.15690978  0.39144893     0.35500
H3762       H  0.79880910  0.17586159  0.38253406     0.40600
H3763       H  0.72616838  0.15406830  0.29174513     0.40300
H3764       H  0.74416433  0.19270127  0.29192571     0.35100
C3765       C  0.93340312  0.16128868  0.34856074    -0.26600
C3766       C  0.94861009  0.17080076  0.32863575    -0.14700
C3767       C  0.93426963  0.17710198  0.31145482     0.36000
C3768       C  0.90531111  0.17406667  0.31475898    -0.26000
C3769       C  0.89076740  0.16567406  0.33499007    -0.15300
C3770       C  0.90505907  0.15898581  0.35208125     0.37100
N3771       N  0.89194575  0.15019708  0.37327290    -0.89500
H3772       H  0.94375077  0.15569345  0.36181370     0.18200
H3773       H  0.89442463  0.17937301  0.30172351     0.18200
N3774       N  0.94934859  0.18726328  0.29098860    -0.88500
H3775       H  0.90728494  0.16618846  0.38434203     0.35500
H3776       H  0.87193656  0.15114341  0.37460901     0.40600
H3777       H  0.96889695  0.20853506  0.29350066     0.40300
H3778       H  0.93561810  0.19083415  0.28011131     0.35100
C3779       C  0.54741270  0.21285235  0.44302811    -0.26600
C3780       C  0.52487928  0.19451007  0.42775258    -0.14700
C3781       C  0.49469468  0.18892317  0.43074887     0.36000
C3782       C  0.98890135  0.20448956  0.44742732    -0.26000
C3783       C  0.51161423  0.22285108  0.46230290    -0.15300
C3784       C  0.54107655  0.22689058  0.46010965     0.37100
N3785       N  0.56503770  0.24522869  0.47505965    -0.89500
H3786       H  0.57058271  0.21724110  0.44141004     0.18200
H3787       H  0.96563027  0.19953749  0.44972060     0.18200
N3788       N  0.97214289  0.17251982  0.41485337    -0.88500
H3789       H  0.55815488  0.23613717  0.49053158     0.35500
H3790       H  0.56826083  0.26732678  0.47500524     0.40600
H3791       H  0.96245351  0.18495710  0.40861691     0.40300
H3792       H  0.95530765  0.15410080  0.42355016     0.35100
C3793       C  0.69909176  0.22022866  0.42513406    -0.26600
C3794       C  0.67815556  0.23086463  0.42387746    -0.14700
C3795       C  0.67486076  0.24613109  0.44209441     0.36000
C3796       C  0.69232689  0.25029292  0.46067797    -0.26000
C3797       C  0.71266214  0.23914087  0.46182508    -0.15300
C3798       C  0.71610231  0.22387388  0.44383268     0.37100
N3799       N  0.73602001  0.21118641  0.44402378    -0.89500
H3800       H  0.70171074  0.20796266  0.41167150     0.18200
H3801       H  0.68991847  0.26224914  0.47443594     0.18200
N3802       N  0.65424529  0.25781188  0.44234545    -0.88500
H3803       H  0.75280540  0.22258084  0.43231548     0.35500
H3804       H  0.74729541  0.21467547  0.45878525     0.40600
H3805       H  0.63187340  0.23959742  0.44121013     0.40300
H3806       H  0.65902075  0.27236780  0.42915383     0.35100
C3807       C  0.50519088  0.10160461  0.22312423    -0.26600
C3808       C  0.99281723  0.10539458  0.24184883    -0.14700
C3809       C  0.96468809  0.10486808  0.24037318     0.36000
C3810       C  0.94999636  0.09973763  0.22035356    -0.26000
C3811       C  0.96191783  0.09363020  0.20177384    -0.15300
C3812       C  0.98983386  0.09377828  0.20317063     0.37100
N3813       N  0.50107174  0.08569070  0.18549126    -0.89500
H3814       H  0.52578989  0.10009661  0.22399292     0.18200
H3815       H  0.92856935  0.09966482  0.21941915     0.18200
N3816       N  0.95064173  0.10911808  0.25914224    -0.88500
H3817       H  0.50619114  0.10132412  0.17297036     0.35500
H3818       H  0.98767758  0.06685016  0.17805185     0.40600
H3819       H  0.92907767  0.08973991  0.26090720     0.40300
H3820       H  0.94762475  0.12786199  0.25647030     0.35100
C3821       C  0.67559990  0.14083652  0.24321740    -0.26600
C3822       C  0.64931445  0.14354743  0.24081413    -0.14700
C3823       C  0.63235146  0.13305341  0.22141607     0.36000
C3824       C  0.64153728  0.11986848  0.20521752    -0.26000
C3825       C  0.66728852  0.11659920  0.20789312    -0.15300
C3826       C  0.68476536  0.12754609  0.22696368     0.37100
N3827       N  0.71177385  0.12526310  0.22970730    -0.89500
H3828       H  0.68874041  0.14846970  0.25804809     0.18200
H3829       H  0.62843157  0.11210826  0.19035959     0.18200
N3830       N  0.60580435  0.13577067  0.21797422    -0.88500
H3831       H  0.72190775  0.13410605  0.24472348     0.35500
H3832       H  0.72750191  0.13895453  0.21797847     0.40600
H3833       H  0.58724408  0.11389637  0.21521546     0.40300
H3834       H  0.60922005  0.14868160  0.20401696     0.35100
O3835       O  0.53086643  0.64526779  0.32626181    -0.88600
C3836       C  0.59894580  0.69900960  0.28412639     0.87400
Mg3837     Mg  0.52511131  0.66167272  0.35689238     1.58100
O3838       O  0.60954568  0.64412261  0.31235538    -0.88300
O3839       O  0.53687841  0.60859291  0.31288519    -0.75700
C3840       C  0.65980947  0.72506355  0.40250867     0.92500
O3841       O  0.56043020  0.71763210  0.31928769    -0.75500
O3842       O  0.63539685  0.72634521  0.40303663    -0.83000
Mg3843     Mg  0.53540353  0.67343527  0.29897373     1.58000
C3844       C  0.69538287  0.67277092  0.33954946     0.92400
O3845       O  0.50922035  0.63363327  0.27534147    -0.81300
H3846       H  0.59641406  0.60065012  0.31926940    -0.06600
C3847       C  0.65299910  0.73007842  0.33822626     0.87300
O3848       O  0.54917236  0.63954828  0.37438868    -0.75800
O3849       O  0.57793301  0.67501719  0.29147475    -0.88500
O3850       O  0.68252017  0.67053416  0.32142661    -0.81300
C3851       C  0.63906443  0.65353333  0.25919461     0.92500
C3852       C  0.51557377  0.61952009  0.26101394     0.92400
Mg3853     Mg  0.64003544  0.67463746  0.36406275     1.58000
O3854       O  0.66755493  0.71634693  0.38558522    -0.81300
O3855       O  0.61522655  0.63000176  0.34453820    -0.75500
O3856       O  0.61092739  0.64561868  0.26064589    -0.81300
O3857       O  0.98754431  0.66758480  0.30974148    -0.83100
O3858       O  0.56525061  0.69997336  0.40290239    -0.81400
C3859       C  0.60688647  0.62401230  0.32493183     0.86800
O3860       O  0.59769188  0.67256873  0.37122148    -0.88500
O3861       O  0.64491672  0.70269638  0.33657032    -0.88600
O3862       O  0.63978488  0.73931896  0.35114954    -0.75700
Mg3863     Mg  0.57532806  0.63108587  0.28787616     1.58000
O3864       O  0.65763320  0.66732392  0.27460619    -0.83000
H3865       H  0.50438506  0.60167377  0.33493867    -0.06800
O3866       O  0.56711890  0.70397226  0.35137999    -0.88300
H3867       H  0.58033891  0.74740108  0.34423056    -0.06600
H3868       H  0.58257572  0.63376344  0.38779506    -0.06800
C3869       C  0.56960370  0.72394502  0.33873691     0.86800
C3870       C  0.52299578  0.61792270  0.32502653     0.87400
C3871       C  0.57693952  0.64826268  0.37838361     0.87400
H3872       H  0.67144888  0.74648144  0.32827447    -0.06800
O3873       O  0.62664710  0.70732130  0.28810800    -0.75800
Mg3874     Mg  0.60103998  0.71612964  0.37615487     1.58000
H3875       H  0.59363084  0.71351970  0.27444232    -0.06800
C3876       C  0.97822972  0.67146588  0.32795237     0.92400
O3877       O  0.51860603  0.67905965  0.38909109    -0.83000
C3878       C  0.53710411  0.69172452  0.40469637     0.92500
O3879       O  0.53975319  0.61778111  0.26195070    -0.83000
Mg3880     Mg  0.65136100  0.68618015  0.30623896     1.58200
O3881       O  0.49546263  0.67922492  0.34243275    -0.81300
O3882       O  0.68451172  0.67664677  0.35696988    -0.83000
C3883       C  0.67433863  0.60315550  0.18797308     0.02000
C3884       C  0.67314962  0.57452470  0.18891884     0.02000
C3885       C  0.68152956  0.56374122  0.17067642    -0.18500
C3886       C  0.69077725  0.58081950  0.15166174     0.02000
C3887       C  0.69204452  0.60922250  0.15082936     0.02000
C3888       C  0.68376333  0.62012811  0.16884030    -0.18500
H3889       H  0.68478824  0.64205556  0.16797878     0.04000
H3890       H  0.68024635  0.54168085  0.17113374     0.04000
C3891       C  0.91430419  0.55558695  0.18228355     0.02000
C3892       C  0.94220771  0.58346550  0.18214842     0.02000
C3893       C  0.95089565  0.60169945  0.16362034    -0.18500
C3894       C  0.93220847  0.59274981  0.14512890     0.02000
C3895       C  0.90432372  0.56443245  0.14512413     0.02000
C3896       C  0.89563958  0.54634796  0.16386565    -0.18500
H3897       H  0.87423973  0.52487344  0.16409963     0.04000
H3898       H  0.97194172  0.62351130  0.16381736     0.04000
O3899       O  0.64467053  0.95142055  0.33888398    -0.88600
C3900       C  0.57713152  0.92948692  0.38301842     0.87400
Mg3901     Mg  0.64709275  0.97373184  0.30891073     1.58100
O3902       O  0.57160359  0.86796149  0.35239248    -0.88300
O3903       O  0.64396615  0.91036517  0.35055829    -0.75700
C3904       C  0.50943334  0.89467125  0.26432850     0.92500
O3905       O  0.60851363  0.98703836  0.34889088    -0.75500
O3906       O  0.53224276  0.92174657  0.26486395    -0.83000
Mg3907     Mg  0.63821968  0.97194221  0.36747961     1.58000
C3908       C  0.98287183  0.80588567  0.32745151     0.92400
O3909       O  0.66900636  0.96213041  0.38954130    -0.81300
H3910       H  0.58771749  0.84085129  0.34289095    -0.06600
C3911       C  0.51972807  0.90403964  0.32944873     0.87300
O3912       O  0.62488401  0.92792375  0.29053032    -0.75800
O3913       O  0.59915011  0.92871257  0.37514550    -0.88500
O3914       O  0.50035157  0.81639143  0.34453257    -0.81300
C3915       C  0.54472131  0.84452974  0.40616369     0.92500
C3916       C  0.66634225  0.94177369  0.40288581     0.92400
Mg3917     Mg  0.53533158  0.86526924  0.30131828     1.58000
O3918       O  0.50480707  0.87561040  0.27934556    -0.81300
O3919       O  0.56443324  0.84911442  0.31963844    -0.75500
O3920       O  0.57272897  0.86514097  0.40437222    -0.81300
O3921       O  0.67704398  0.51887791  0.35880329    -0.83100
O3922       O  0.60330010  0.97187412  0.26376628    -0.81400
C3923       C  0.57498938  0.85206789  0.33868911     0.86800
O3924       O  0.57549323  0.90812167  0.29338208    -0.88500
O3925       O  0.53030296  0.88669695  0.32986979    -0.88600
O3926       O  0.53066962  0.92707130  0.31704942    -0.75700
Mg3927     Mg  0.60672905  0.89021940  0.37654756     1.58000
O3928       O  0.52561676  0.83965496  0.39114913    -0.83000
H3929       H  0.67403209  0.93878073  0.32823639    -0.06800
O3930       O  0.60321993  0.96977311  0.31572327    -0.88300
H3931       H  0.58560558  0.99547643  0.32546437    -0.06600
H3932       H  0.59409904  0.88810207  0.27613245    -0.06800
C3933       C  0.59877166  0.98471355  0.32964129     0.86800
C3934       C  0.65526135  0.93409055  0.33887879     0.87400
C3935       C  0.59777119  0.90728134  0.28608252     0.87400
H3936       H  0.50107055  0.89978563  0.34007593    -0.06800
O3937       O  0.54990531  0.90918346  0.37860799    -0.75800
Mg3938     Mg  0.56842440  0.94685963  0.29113958     1.58000
H3939       H  0.58114820  0.94845553  0.39333806    -0.06800
C3940       C  0.68675479  0.53402904  0.34140486     0.92400
O3941       O  0.65022027  0.99749947  0.27745961    -0.83000
C3942       C  0.63136405  0.99240628  0.26222611     0.92500
O3943       O  0.64395855  0.91450720  0.40182154    -0.83000
Mg3944     Mg  0.52810097  0.86390562  0.35983785     1.58200
O3945       O  0.67353802  0.52295643  0.32333830    -0.81300
O3946       O  0.99026177  0.82100286  0.30994629    -0.83000
O3947       O  0.81675992  0.86529512  0.34318262    -0.88600
C3948       C  0.87040980  0.93746369  0.38271739     0.87400
Mg3949     Mg  0.83187173  0.86121697  0.31189771     1.58100
O3950       O  0.80902147  0.94018716  0.35859083    -0.88300
O3951       O  0.77908807  0.86822955  0.35801113    -0.75700
C3952       C  0.88045403  0.99363457  0.26432779     0.92500
O3953       O  0.89072600  0.90136912  0.34718488    -0.75500
O3954       O  0.88612365  0.97199331  0.26639086    -0.83000
Mg3955     Mg  0.84893615  0.87408488  0.36883388     1.58000
C3956       C  0.82921774  0.52493441  0.33215014     0.92400
O3957       O  0.81246308  0.84564777  0.39337200    -0.81300
H3958       H  0.76421276  0.92334661  0.35441025    -0.06600
C3959       C  0.89113143  0.99109921  0.32965418     0.87300
O3960       O  0.80476735  0.88154714  0.29619679    -0.75800
O3961       O  0.84685890  0.91448499  0.37650532    -0.88500
O3962       O  0.82467367  0.01049852  0.34997181    -0.81300
C3963       C  0.82087257  0.96804555  0.41253217     0.92500
C3964       C  0.79713306  0.84915980  0.40818921     0.92400
Mg3965     Mg  0.83116030  0.97137137  0.30571628     1.58000
O3966       O  0.86627841  0.99938090  0.27897542    -0.81300
O3967       O  0.78995343  0.94407053  0.32796919    -0.75500
O3968       O  0.81956238  0.94247524  0.41006017    -0.81300
O3969       O  0.84936488  0.83069376  0.36036539    -0.83100
O3970       O  0.86357665  0.90309990  0.26562968    -0.81400
C3971       C  0.78681947  0.93551604  0.34749522     0.86800
O3972       O  0.83369251  0.93116840  0.29839876    -0.88500
O3973       O  0.86354648  0.98148363  0.33185051    -0.88600
O3974       O  0.90095014  0.97803697  0.31709697    -0.75700
Mg3975     Mg  0.80179616  0.90712689  0.38284170     1.58000
O3976       O  0.82909502  0.98709735  0.39704335    -0.83000
H3977       H  0.77313370  0.83613000  0.33572966    -0.06800
O3978       O  0.87148865  0.90560932  0.31677348    -0.88300
H3979       H  0.91630549  0.92215624  0.32069712    -0.06600
H3980       H  0.79293952  0.91133689  0.28378880    -0.06800
C3981       C  0.89375407  0.91005493  0.32770568     0.86800
C3982       C  0.78911681  0.85546026  0.34536196     0.87400
C3983       C  0.80997393  0.90837403  0.29226632     0.87400
H3984       H  0.90725398  0.01055656  0.33912464    -0.06800
O3985       O  0.87500368  0.96423582  0.37924905    -0.75800
Mg3986     Mg  0.87886242  0.93855766  0.29253645     1.58000
H3987       H  0.88770153  0.93474762  0.39103857    -0.06800
C3988       C  0.85260806  0.82064632  0.34227908     0.92400
O3989       O  0.84810613  0.85698474  0.27895420    -0.83000
C3990       C  0.85774447  0.87568788  0.26335090     0.92500
O3991       O  0.79293776  0.87192628  0.40842089    -0.83000
Mg3992     Mg  0.84761083  0.98458152  0.36362461     1.58200
O3993       O  0.85445628  0.83461612  0.32478261    -0.81300
O3994       O  0.83399681  0.51574042  0.31418894    -0.83000
C3995       C  0.90170267  0.84605186  0.18656385     0.02000
C3996       C  0.93047891  0.84791827  0.18724849     0.02000
C3997       C  0.94060779  0.83892034  0.16878696    -0.18500
C3998       C  0.92249912  0.82862471  0.14979192     0.02000
C3999       C  0.89475344  0.82911954  0.14917482     0.02000
C4000       C  0.88454110  0.83727172  0.16760902    -0.18500
H4001       H  0.86297183  0.83702562  0.16716116     0.04000
H4002       H  0.96218721  0.83927691  0.16937754     0.04000
O4003       O  0.71713125  0.52458922  0.00570324    -0.88600
C4004       C  0.73581188  0.97257956  0.04792788     0.87400
Mg4005     Mg  0.69338046  0.50657359  0.97542878     1.58100
O4006       O  0.79871467  0.52827727  0.01924435    -0.88300
O4007       O  0.75953105  0.56176421  0.01908081    -0.75700
C4008       C  0.76527650  0.94607505  0.92839114     0.92500
O4009       O  0.67613784  0.95100188  0.01472889    -0.75500
O4010       O  0.73874468  0.94273018  0.92975195    -0.83000
Mg4011     Mg  0.69472355  0.99541884  0.03470027     1.58000
C4012       C  0.85770397  0.50154445  0.99154538     0.92400
O4013       O  0.70857820  0.53724736  0.05696405    -0.81300
H4014       H  0.82790881  0.57203593  0.01236692    -0.06600
C4015       C  0.75872263  0.94298310  0.99317051     0.87300
O4016       O  0.73870787  0.52925599  0.95672508    -0.75800
O4017       O  0.73709907  0.99600762  0.04086650    -0.88500
O4018       O  0.84678521  0.50358187  0.00960930    -0.81300
C4019       C  0.82009358  0.51916561  0.07228878     0.92500
C4020       C  0.72829398  0.54945468  0.07204060     0.92400
Mg4021     Mg  0.79928623  0.49894326  0.96685600     1.58000
O4022       O  0.78514371  0.95886520  0.94326778    -0.81300
O4023       O  0.81780289  0.54291134  0.98701680    -0.75500
O4024       O  0.79988970  0.52711463  0.07092367    -0.81300
O4025       O  0.65143342  0.99710475  0.02777466    -0.83100
O4026       O  0.69206635  0.96595446  0.93054213    -0.81400
C4027       C  0.81553161  0.54866490  0.00666530     0.86800
O4028       O  0.75710149  0.49854774  0.96013611    -0.88500
O4029       O  0.77734480  0.97059634  0.99425918    -0.88600
O4030       O  0.73512378  0.93269717  0.98126991    -0.75700
Mg4031     Mg  0.77716817  0.54032482  0.04403190     1.58000
O4032       O  0.82484023  0.50553634  0.05673919    -0.83000
H4033       H  0.73363826  0.56805006  0.99683498    -0.06800
O4034       O  0.69475218  0.96489028  0.98226907    -0.88300
H4035       H  0.66629349  0.92118549  0.98982244    -0.06600
H4036       H  0.77813937  0.53681213  0.94267271    -0.06800
C4037       C  0.67843077  0.94472872  0.99517718     0.86800
C4038       C  0.73634332  0.55202914  0.00680483     0.87400
C4039       C  0.75882322  0.52195282  0.95262250     0.87400
H4040       H  0.76228662  0.92727873  0.00287150    -0.06800
O4041       O  0.75604390  0.96564414  0.04328134    -0.75800
Mg4042     Mg  0.71603077  0.95339562  0.95693145     1.58000
H4043       H  0.71673150  0.95734124  0.05792394    -0.06800
C4044       C  0.63619395  0.99181161  0.01036631     0.92400
O4045       O  0.66575501  0.98575899  0.94512370    -0.83000
C4046       C  0.67116195  0.97296301  0.92935416     0.92500
O4047       O  0.75426561  0.55149555  0.07069646    -0.83000
Mg4048     Mg  0.80118581  0.98869779  0.02433005     1.58200
O4049       O  0.64522379  0.98579598  0.99280473    -0.81300
O4050       O  0.84326030  0.49808899  0.97393558    -0.83000
O4051       O  0.78232247  0.80629308  0.99483895    -0.88600
C4052       C  0.76226443  0.73613063  0.95364851     0.87400
Mg4053     Mg  0.80403514  0.80979259  0.02491032     1.58100
O4054       O  0.69969194  0.73039642  0.98280384    -0.88300
O4055       O  0.74024034  0.80328763  0.98321581    -0.75700
C4056       C  0.72870210  0.67531220  0.07068643     0.92500
O4057       O  0.82076969  0.77198475  0.98647578    -0.75500
O4058       O  0.75521091  0.69834486  0.06904029    -0.83000
Mg4059     Mg  0.80354632  0.79913857  0.96710075     1.58000
C4060       C  0.63661310  0.64495221  0.00857847     0.92400
O4061       O  0.79208083  0.82743421  0.94397705    -0.81300
H4062       H  0.67085349  0.74547708  0.98965621    -0.06600
C4063       C  0.73589501  0.68053821  0.00661320     0.87300
O4064       O  0.75801957  0.78776586  0.04266435    -0.75800
O4065       O  0.76101265  0.75840423  0.96063787    -0.88500
O4066       O  0.64841440  0.65842404  0.99084740    -0.81300
C4067       C  0.67895226  0.70192933  0.92928996     0.92500
C4068       C  0.77120282  0.82161452  0.93011032     0.92400
Mg4069     Mg  0.69631095  0.69731329  0.03372791     1.58000
O4070       O  0.70815387  0.66908920  0.05646799    -0.81300
O4071       O  0.67886766  0.72432729  0.01453818    -0.75500
O4072       O  0.69951680  0.72969525  0.93164821    -0.81300
O4073       O  0.84797206  0.84246967  0.97468016    -0.83100
O4074       O  0.80015407  0.76775753  0.06981742    -0.81400
C4075       C  0.68250397  0.73372992  0.99521690     0.86800
O4076       O  0.73890179  0.73830540  0.04014420    -0.88500
O4077       O  0.71768067  0.69004731  0.00605142    -0.88600
O4078       O  0.75991586  0.69360838  0.01806457    -0.75700
Mg4079     Mg  0.72170301  0.76437585  0.95840377     1.58000
O4080       O  0.67245661  0.68267416  0.94431063    -0.83000
H4081       H  0.76898690  0.83559747  0.00445331    -0.06800
O4082       O  0.80040107  0.76621983  0.01839054    -0.88300
H4083       H  0.82887245  0.75077206  0.01127935    -0.06600
H4084       H  0.71815789  0.75682723  0.05664009    -0.06800
C4085       C  0.81730095  0.76264809  0.00582359     0.86800
C4086       C  0.76444800  0.81619417  0.99443658     0.87400
C4087       C  0.73758657  0.76058437  0.04706243     0.87400
H4088       H  0.73176965  0.66125817  0.99660322    -0.06800
O4089       O  0.74190744  0.70896241  0.95812520    -0.75800
Mg4090     Mg  0.77828935  0.73261993  0.04290451     1.58000
H4091       H  0.78161249  0.73988648  0.94397180    -0.06800
C4092       C  0.86264501  0.85117350  0.99243261     0.92400
O4093       O  0.82751120  0.81454841  0.05677775    -0.83000
C4094       C  0.82038156  0.79563038  0.07214459     0.92500
O4095       O  0.74452045  0.79892807  0.93221006    -0.83000
Mg4096     Mg  0.69595880  0.68671262  0.97597075     1.58200
O4097       O  0.85133041  0.83693423  0.00996190    -0.81300
O4098       O  0.65131151  0.65390180  0.02632081    -0.83000
O4099       O  0.52508997  0.71703674  0.99393921    -0.88600
C4100       C  0.97049283  0.73562939  0.95314186     0.87400
Mg4101     Mg  0.50866588  0.69689231  0.02527240     1.58100
O4102       O  0.53321451  0.79868627  0.97915328    -0.88300
O4103       O  0.56372173  0.75638706  0.97906202    -0.75700
C4104       C  0.95372861  0.77993196  0.07418549     0.92500
O4105       O  0.94873754  0.68030230  0.98893018    -0.75500
O4106       O  0.94753118  0.75211756  0.07339799    -0.83000
Mg4107     Mg  0.99067061  0.69332424  0.96715722     1.58000
C4108       C  0.51186246  0.86324828  0.00537545     0.92400
O4109       O  0.53138464  0.70164124  0.94205599    -0.81300
H4110       H  0.57756239  0.82606008  0.98555651    -0.06600
C4111       C  0.94735658  0.76694543  0.00901306     0.87300
O4112       O  0.53502048  0.74371035  0.04207518    -0.75800
O4113       O  0.99422148  0.73623204  0.95880458    -0.88500
O4114       O  0.51331129  0.85079472  0.98785186    -0.81300
C4115       C  0.52171109  0.81780343  0.92603681     0.92500
C4116       C  0.54709641  0.72080526  0.92740101     0.92400
Mg4117     Mg  0.50781837  0.80612592  0.03268154     1.58000
O4118       O  0.96938204  0.79890830  0.05937643    -0.81300
O4119       O  0.54963429  0.81983018  0.01091767    -0.75500
O4120       O  0.53035492  0.79806034  0.92735693    -0.81300
O4121       O  0.98886058  0.64887666  0.97587270    -0.83100
O4122       O  0.96669870  0.69950123  0.07315000    -0.81400
C4123       C  0.55437092  0.81541837  0.99142402     0.86800
O4124       O  0.50540391  0.76370270  0.04131121    -0.88500
O4125       O  0.97521473  0.78306149  0.00684269    -0.88600
O4126       O  0.93602042  0.74459507  0.02198509    -0.75700
Mg4127     Mg  0.54293534  0.77462412  0.95423607     1.58000
O4128       O  0.50891614  0.82313340  0.94177263    -0.83000
H4129       H  0.56826237  0.72983095  0.00161807    -0.06800
O4130       O  0.96451766  0.70032144  0.02112472    -0.88300
H4131       H  0.92023564  0.67421777  0.01390996    -0.06600
H4132       H  0.54611411  0.78441633  0.05597746    -0.06800
C4133       C  0.94357860  0.68444449  0.00841728     0.86800
C4134       C  0.55287668  0.73389615  0.99190475     0.87400
C4135       C  0.52928901  0.76472207  0.04704826     0.87400
H4136       H  0.93231667  0.77161771  0.99938913    -0.06800
O4137       O  0.96491856  0.75663535  0.95846139    -0.75800
Mg4138     Mg  0.95574115  0.72493937  0.04656834     1.58000
H4139       H  0.95355592  0.71616610  0.94408001    -0.06800
C4140       C  0.98466637  0.63481733  0.99366132     0.92400
O4141       O  0.98658194  0.67326837  0.05811145    -0.83000
C4142       C  0.97402873  0.67871240  0.07398769     0.92500
O4143       O  0.55248759  0.74830975  0.92799020    -0.83000
Mg4144     Mg  0.99203192  0.80319903  0.97534292     1.58200
O4145       O  0.98270799  0.64653268  0.01145382    -0.81300
O4146       O  0.50851303  0.85009200  0.02350019    -0.83000
O4147       O  0.63729910  0.52201253  0.67078540    -0.88600
C4148       C  0.69214718  0.59487275  0.70923050     0.87400
Mg4149     Mg  0.65151365  0.51712748  0.63923558     1.58100
O4150       O  0.63117676  0.59844996  0.68454590    -0.88300
O4151       O  0.60007120  0.52587670  0.68530168    -0.75700
C4152       C  0.70165948  0.64908927  0.59068892     0.92500
O4153       O  0.71082684  0.55808389  0.67379320    -0.75500
O4154       O  0.70596432  0.62642410  0.59149422    -0.83000
Mg4155     Mg  0.66988186  0.53144474  0.69643134     1.58000
C4156       C  0.65012926  0.68256259  0.65756070     0.92400
O4157       O  0.63418164  0.50418681  0.72267504    -0.81300
H4158       H  0.58645992  0.58260803  0.68083125    -0.06600
C4159       C  0.71304318  0.64685863  0.65454694     0.87300
O4160       O  0.62431514  0.53740372  0.62353150    -0.75800
O4161       O  0.66806746  0.57206436  0.70361279    -0.88500
O4162       O  0.64990689  0.66999978  0.67544555    -0.81300
C4163       C  0.64539252  0.62931550  0.73756511     0.92500
C4164       C  0.61902986  0.50932470  0.73689551     0.92400
Mg4165     Mg  0.65302431  0.62811906  0.63167240     1.58000
O4166       O  0.68891620  0.65532309  0.60603715    -0.81300
O4167       O  0.61178478  0.60210891  0.65401096    -0.75500
O4168       O  0.63929874  0.60175932  0.73576536    -0.81300
O4169       O  0.66811682  0.98679504  0.68741318    -0.83100
O4170       O  0.68277691  0.55672119  0.59136856    -0.81400
C4171       C  0.60891828  0.59410362  0.67364725     0.86800
O4172       O  0.65410216  0.58702539  0.62435879    -0.88500
O4173       O  0.68556749  0.63732462  0.65723597    -0.88600
O4174       O  0.72231142  0.63349848  0.64182230    -0.75700
Mg4175     Mg  0.62315230  0.56575345  0.70923573     1.58000
O4176       O  0.65542955  0.64761001  0.72171160    -0.83000
H4177       H  0.59353596  0.49252523  0.66399485    -0.06800
O4178       O  0.69153142  0.56128337  0.64301351    -0.88300
H4179       H  0.73634109  0.57804764  0.64711865    -0.06600
H4180       H  0.61264191  0.56714044  0.61079072    -0.06800
C4181       C  0.71378807  0.56612151  0.65413689     0.86800
C4182       C  0.60974273  0.51233598  0.67313091     0.87400
C4183       C  0.62984927  0.56420055  0.61903355     0.87400
H4184       H  0.72953958  0.66652429  0.66366926    -0.06800
O4185       O  0.69780231  0.62168630  0.70468210    -0.75800
Mg4186     Mg  0.69885048  0.59330092  0.61796638     1.58000
H4187       H  0.70914562  0.59190197  0.71775427    -0.06800
C4188       C  0.67155483  0.97712405  0.66923184     0.92400
O4189       O  0.66714907  0.51150851  0.60616234    -0.83000
C4190       C  0.67744855  0.52932779  0.59008701     0.92500
O4191       O  0.61446757  0.53176639  0.73537417    -0.83000
Mg4192     Mg  0.67132860  0.64251548  0.68872071     1.58200
O4193       O  0.67436584  0.49140058  0.65246124    -0.81300
O4194       O  0.65292196  0.67179386  0.63967716    -0.83000
C4195       C  0.57962506  0.67556191  0.85109893     0.02000
C4196       C  0.60764710  0.67587637  0.85138796     0.02000
C4197       C  0.61797707  0.66800658  0.83295828    -0.18500
C4198       C  0.60048115  0.65869136  0.81416132     0.02000
C4199       C  0.57126542  0.65612646  0.81383225     0.02000
C4200       C  0.56137332  0.66523444  0.83230617    -0.18500
H4201       H  0.53960551  0.66450572  0.83196403     0.04000
H4202       H  0.63985840  0.66889337  0.83332397     0.04000
C4203       C  0.59012319  0.93048226  0.85466466     0.02000
C4204       C  0.56205814  0.90235424  0.85407171     0.02000
C4205       C  0.54409317  0.89418602  0.83523210    -0.18500
C4206       C  0.55390187  0.91287322  0.81692848     0.02000
C4207       C  0.58225200  0.94028065  0.81717611     0.02000
C4208       C  0.59993214  0.94893691  0.83608662    -0.18500
H4209       H  0.62151066  0.97022776  0.83635469     0.04000
H4210       H  0.52264968  0.87276438  0.83461162     0.04000
O4211       O  0.97149264  0.61183414  0.67277022    -0.88600
C4212       C  0.90353918  0.59315941  0.71610100     0.87400
Mg4213     Mg  0.97447099  0.63267067  0.64191799     1.58100
O4214       O  0.89780764  0.52999524  0.68740039    -0.88300
O4215       O  0.97067449  0.57180087  0.68664516    -0.75700
C4216       C  0.83652877  0.55659984  0.59876618     0.92500
O4217       O  0.93703646  0.64997049  0.68079574    -0.75500
O4218       O  0.85950413  0.58346610  0.59903199    -0.83000
Mg4219     Mg  0.96556397  0.63464441  0.70038501     1.58000
C4220       C  0.80953552  0.96923648  0.66274324     0.92400
O4221       O  0.99530311  0.62523884  0.72373510    -0.81300
H4222       H  0.91438761  0.50299376  0.67863639    -0.06600
C4223       C  0.84735198  0.56651872  0.66284311     0.87300
O4224       O  0.95178857  0.58642554  0.62446022    -0.75800
O4225       O  0.92562728  0.59208812  0.70867332    -0.88500
O4226       O  0.82335724  0.98069151  0.68052446    -0.81300
C4227       C  0.86969824  0.50889413  0.74071988     0.92500
C4228       C  0.99182145  0.60615171  0.73844803     0.92400
Mg4229     Mg  0.86298701  0.52669846  0.63542733     1.58000
O4230       O  0.83293296  0.53699937  0.61309247    -0.81300
O4231       O  0.89177636  0.51100312  0.65472179    -0.75500
O4232       O  0.89738689  0.53026523  0.73929645    -0.81300
O4233       O  0.50871988  0.68078982  0.69278263    -0.83100
O4234       O  0.93074995  0.63077661  0.59677438    -0.81400
C4235       C  0.90170455  0.51408726  0.67398729     0.86800
O4236       O  0.90276921  0.56874199  0.62726998    -0.88500
O4237       O  0.85721918  0.54859151  0.66349475    -0.88600
O4238       O  0.85901459  0.58955366  0.65046357    -0.75700
Mg4239     Mg  0.93252251  0.55342128  0.71206774     1.58000
O4240       O  0.85075378  0.50285070  0.72537831    -0.83000
H4241       H  0.00110201  0.59857386  0.66386887    -0.06800
O4242       O  0.93137426  0.63037349  0.64841483    -0.88300
H4243       H  0.91519580  0.65796896  0.65637078    -0.06600
H4244       H  0.91982779  0.54698775  0.61033420    -0.06800
C4245       C  0.92761420  0.64677198  0.66142898     0.86800
C4246       C  0.98210243  0.59457781  0.67404104     0.87400
C4247       C  0.92439287  0.56667953  0.62002205     0.87400
H4248       H  0.82881990  0.56289176  0.67339157    -0.06800
O4249       O  0.87634235  0.57248483  0.71192808    -0.75800
Mg4250     Mg  0.89640806  0.60779656  0.62444545     1.58000
H4251       H  0.90744160  0.61250350  0.72594914    -0.06800
C4252       C  0.51654357  0.69508278  0.67494952     0.92400
O4253       O  0.97804262  0.65539211  0.60975355    -0.83000
C4254       C  0.95895308  0.65058755  0.59476617     0.92500
O4255       O  0.96904177  0.57900292  0.73828046    -0.83000
Mg4256     Mg  0.85407635  0.52647619  0.69378091     1.58200
O4257       O  0.00348681  0.68040441  0.65594093    -0.81300
O4258       O  0.81869359  0.98396143  0.64514876    -0.83000
O4259       O  0.85483806  0.80312718  0.66147364    -0.88600
C4260       C  0.92304969  0.85333466  0.61821625     0.87400
Mg4261     Mg  0.85049766  0.82134711  0.69191598     1.58100
O4262       O  0.93039226  0.79766160  0.64757601    -0.88300
O4263       O  0.85756913  0.76456254  0.64815753    -0.75700
C4264       C  0.98633420  0.88395340  0.73718156     0.92500
O4265       O  0.88735948  0.87539492  0.65288324    -0.75500
O4266       O  0.96274330  0.88667374  0.73608450    -0.83000
Mg4267     Mg  0.86048160  0.83074099  0.63345437     1.58000
C4268       C  0.51977246  0.82850078  0.67245436     0.92400
O4269       O  0.83190262  0.79054096  0.61059212    -0.81300
H4270       H  0.91619379  0.75437586  0.65583306    -0.06600
C4271       C  0.97821462  0.88495669  0.67194452     0.87300
O4272       O  0.87412544  0.79905594  0.70995337    -0.75800
O4273       O  0.90155298  0.82997393  0.62590146    -0.88500
O4274       O  0.00174365  0.81938595  0.65608034    -0.81300
C4275       C  0.95875797  0.80382658  0.59405060     0.92500
C4276       C  0.83754088  0.77667276  0.59567123     0.92400
Mg4277     Mg  0.96488223  0.83035583  0.69915317     1.58000
O4278       O  0.99296599  0.87089210  0.72218248    -0.81300
O4279       O  0.93806998  0.78532063  0.67984451    -0.75500
O4280       O  0.93088550  0.79672369  0.59574592    -0.81300
O4281       O  0.81648183  0.83010140  0.64119827    -0.83100
O4282       O  0.89284503  0.86275543  0.73773282    -0.81400
C4283       C  0.92780662  0.77813586  0.66068073     0.86800
O4284       O  0.92314307  0.83026547  0.70686600    -0.88500
O4285       O  0.96934941  0.85735245  0.67110521    -0.88600
O4286       O  0.96567884  0.89547120  0.68439151    -0.75700
Mg4287     Mg  0.89600730  0.78488049  0.62292979     1.58000
O4288       O  0.97773814  0.81754582  0.60925934    -0.83000
H4289       H  0.82638805  0.76013106  0.67061712    -0.06800
O4290       O  0.89313422  0.86243868  0.68547333    -0.88300
H4291       H  0.90817298  0.90589553  0.67727519    -0.06600
H4292       H  0.90620166  0.79157366  0.72380104    -0.06800
C4293       C  0.89649686  0.88218647  0.67229900     0.86800
C4294       C  0.84525332  0.77540922  0.66047481     0.87400
C4295       C  0.90158411  0.80657254  0.71410724     0.87400
H4296       H  0.99668402  0.90043195  0.66159713    -0.06800
O4297       O  0.95053974  0.86094225  0.62233622    -0.75800
Mg4298     Mg  0.92758513  0.87497098  0.70999031     1.58000
H4299       H  0.91834864  0.86800938  0.60821260    -0.06800
C4300       C  0.80616196  0.83445869  0.65874663     0.92400
O4301       O  0.84616116  0.84141711  0.72390228    -0.83000
C4302       C  0.86483935  0.85527858  0.73927676     0.92500
O4303       O  0.86078642  0.77326279  0.59650060    -0.83000
Mg4304     Mg  0.97335749  0.83822895  0.64083221     1.58200
O4305       O  0.82014309  0.83812666  0.67662639    -0.81300
O4306       O  0.51139163  0.83467119  0.69023925    -0.83000
C4307       C  0.80972661  0.89102024  0.85109878     0.02000
C4308       C  0.80644352  0.91704646  0.84996163     0.02000
C4309       C  0.81569942  0.93508009  0.83141962    -0.18500
C4310       C  0.82774037  0.92730005  0.81370469     0.02000
C4311       C  0.83057608  0.90073860  0.81460433     0.02000
C4312       C  0.82143515  0.88286257  0.83341352    -0.18500
H4313       H  0.82312087  0.86232914  0.83422764     0.04000
H4314       H  0.81381353  0.95552434  0.83086545     0.04000
C4315       C  0.50491097  0.73582582  0.48095873     0.02000
C4316       C  0.50935390  0.76574938  0.48161690     0.02000
C4317       C  0.50391748  0.77673895  0.50097800    -0.18500
C4318       C  0.99187818  0.75677472  0.51947946     0.02000
C4319       C  0.98921189  0.72752725  0.51888755     0.02000
C4320       C  0.49547769  0.71778761  0.49959022    -0.18500
H4321       H  0.49327320  0.69531402  0.49912422     0.04000
H4322       H  0.50669119  0.79944847  0.50142283     0.04000
C4323       C  0.73088477  0.74126592  0.47970635     0.02000
C4324       C  0.76001449  0.76758003  0.48116069     0.02000
C4325       C  0.77831643  0.77229729  0.49942540    -0.18500
C4326       C  0.76776911  0.75110508  0.51637103     0.02000
C4327       C  0.73874809  0.72442307  0.51463794     0.02000
C4328       C  0.72044717  0.71989527  0.49644486    -0.18500
H4329       H  0.69809562  0.69961042  0.49525063     0.04000
H4330       H  0.80049171  0.79279891  0.50063145     0.04000
C4331       C  0.73483512  0.98210094  0.48243186     0.02000
C4332       C  0.76587407  0.99172968  0.48632297     0.02000
C4333       C  0.77872305  0.00405297  0.50654200    -0.18500
C4334       C  0.76471689  0.51383641  0.52058994     0.02000
C4335       C  0.73409712  0.50613628  0.51704002     0.02000
C4336       C  0.71743567  0.98563179  0.49865840    -0.18500
H4337       H  0.69386980  0.97908596  0.49541827     0.04000
H4338       H  0.80241333  0.01096207  0.50964216     0.04000
C4339       C  0.50167928  0.97282241  0.00233457     0.02000
C4340       C  0.52784749  0.00211665  0.00405500     0.02000
C4341       C  0.52472936  0.52815937  0.00175364     0.02000
C4342       C  0.49588793  0.52550252  0.99835743     0.02000
C4343       C  0.96920926  0.99607826  0.99421151     0.02000
C4344       C  0.97204446  0.96965370  0.99579088     0.02000
C4345       C  0.86218498  0.66714784  0.33888195     0.02000
C4346       C  0.83284013  0.64074285  0.34032648     0.02000
C4347       C  0.80660139  0.64379454  0.34209169     0.02000
C4348       C  0.80987692  0.67322440  0.34321711     0.02000
C4349       C  0.83917210  0.69959952  0.34232594     0.02000
C4350       C  0.86523500  0.69651773  0.33972894     0.02000
C4351       C  0.68884064  0.82840207  0.65921530     0.02000
C4352       C  0.69165113  0.85760076  0.66078997     0.02000
C4353       C  0.66540812  0.86020637  0.66370924     0.02000
C4354       C  0.63651624  0.83376156  0.66571131     0.02000
C4355       C  0.63382598  0.80467052  0.66451102     0.02000
C4356       C  0.65988877  0.80187550  0.66116850     0.02000
C4357       C  0.56706307  0.83358798  0.68962640    -0.26600
C4358       C  0.54992264  0.83009861  0.67081925    -0.14700
C4359       C  0.56294995  0.83040596  0.65048404     0.36000
C4360       C  0.59195143  0.83351194  0.64944713    -0.26000
C4361       C  0.60844993  0.83591426  0.66816465    -0.15300
C4362       C  0.59602098  0.83621452  0.68857932     0.37100
N4363       N  0.61192823  0.83900708  0.70848092    -0.89500
H4364       H  0.55784279  0.83400047  0.70533758     0.18200
H4365       H  0.60132531  0.83316158  0.63379959     0.18200
N4366       N  0.54707731  0.82779897  0.63069423    -0.88500
H4367       H  0.59898000  0.81892262  0.71723999     0.35500
H4368       H  0.63313545  0.84083904  0.70578421     0.40600
H4369       H  0.54451451  0.80868626  0.62225364     0.40300
H4370       H  0.56061714  0.84717721  0.62139687     0.35100
C4371       C  0.73290862  0.83110110  0.67762374    -0.26600
C4372       C  0.71697800  0.82629539  0.65829879    -0.14700
C4373       C  0.73004348  0.82372620  0.63877565     0.36000
C4374       C  0.75941107  0.82721675  0.63919710    -0.26000
C4375       C  0.77601865  0.83312797  0.65865304    -0.15300
C4376       C  0.76207360  0.83472414  0.67801549     0.37100
N4377       N  0.77729668  0.84025481  0.69833023    -0.89500
H4378       H  0.72303154  0.83326872  0.69259996     0.18200
H4379       H  0.76917840  0.82517806  0.62414545     0.18200
N4380       N  0.71459406  0.81813819  0.61833290    -0.88500
H4381       H  0.76365670  0.82187602  0.70843307     0.35500
H4382       H  0.77858033  0.85994368  0.70493193     0.40600
H4383       H  0.69314758  0.81612801  0.62001462     0.40300
H4384       H  0.71081227  0.79704048  0.61258483     0.35100
C4385       C  0.82273192  0.88223898  0.77670328    -0.26600
C4386       C  0.84019433  0.88956688  0.79557119    -0.14700
C4387       C  0.86511500  0.88435480  0.79641585     0.36000
C4388       C  0.87213651  0.87219218  0.77815391    -0.26000
C4389       C  0.85464713  0.86493633  0.75903476    -0.15300
C4390       C  0.82960673  0.87023678  0.75863533     0.37100
N4391       N  0.81084105  0.86424125  0.74000248    -0.89500
H4392       H  0.80320530  0.88556911  0.77603392     0.18200
H4393       H  0.89156159  0.86866976  0.77880987     0.18200
N4394       N  0.88331766  0.89169656  0.81571576    -0.88500
H4395       H  0.80026599  0.84086777  0.73669899     0.35500
H4396       H  0.82466382  0.87682155  0.72707811     0.40600
H4397       H  0.89390046  0.91532742  0.81805286     0.40300
H4398       H  0.90076574  0.88651748  0.81374773     0.35100
C4399       C  0.77374139  0.76055656  0.55597283    -0.26600
C4400       C  0.78620982  0.75777957  0.53645007    -0.14700
C4401       C  0.81513263  0.76003197  0.53651678     0.36000
C4402       C  0.83058551  0.76422492  0.55627969    -0.26000
C4403       C  0.81808968  0.76700151  0.57592366    -0.15300
C4404       C  0.78916526  0.76489637  0.57561154     0.37100
N4405       N  0.77526411  0.76719368  0.59515536    -0.89500
H4406       H  0.75173686  0.75933523  0.55597231     0.18200
H4407       H  0.85307202  0.76656251  0.55618403     0.18200
N4408       N  0.82902339  0.75881463  0.51654711    -0.88500
H4409       H  0.75414726  0.74720435  0.59676440     0.35500
H4410       H  0.77128133  0.78551443  0.59362292     0.40600
H4411       H  0.81552851  0.73725457  0.50963128     0.40300
H4412       H  0.85043139  0.76107926  0.51942302     0.35100
C4413       C  0.94544300  0.76977423  0.56178915    -0.26600
C4414       C  0.96824601  0.79351669  0.57439873    -0.14700
C4415       C  0.99925463  0.80484079  0.56888889     0.36000
C4416       C  0.00651732  0.79227056  0.55103920    -0.26000
C4417       C  0.98358519  0.76840653  0.53881745    -0.15300
C4418       C  0.95287774  0.75717123  0.54422591     0.37100
N4419       N  0.92913236  0.73311878  0.53172785    -0.89500
H4420       H  0.92155795  0.76038422  0.56577337     0.18200
H4421       H  0.53246047  0.80348344  0.54644369     0.18200
N4422       N  0.52550525  0.83179368  0.58093491    -0.88500
H4423       H  0.91508500  0.74104302  0.52561925     0.35500
H4424       H  0.91605647  0.71489082  0.54209104     0.40600
H4425       H  0.52376316  0.85135576  0.57865247     0.40300
H4426       H  0.54690424  0.83686365  0.57507031     0.35100
C4427       C  0.76636995  0.92651705  0.64261226    -0.26600
C4428       C  0.78086238  0.93886111  0.66255936    -0.14700
C4429       C  0.76594305  0.92355580  0.68182757     0.36000
C4430       C  0.73686592  0.89733997  0.68058707    -0.26000
C4431       C  0.72244676  0.88555461  0.66068419    -0.15300
C4432       C  0.73758611  0.90010712  0.64140314     0.37100
N4433       N  0.72431113  0.88935119  0.62038322    -0.89500
H4434       H  0.77719267  0.93778614  0.62765468     0.18200
H4435       H  0.72524367  0.88585908  0.69529618     0.18200
N4436       N  0.77979778  0.93489472  0.70262775    -0.88500
H4437       H  0.73848112  0.88339646  0.61194007     0.35500
H4438       H  0.70303247  0.86957868  0.62134039     0.40600
H4439       H  0.76505361  0.92188151  0.71504337     0.40300
H4440       H  0.79875448  0.93187746  0.70371444     0.35100
C4441       C  0.55537485  0.73715651  0.65241459    -0.26600
C4442       C  0.54527235  0.72500554  0.67320106    -0.14700
C4443       C  0.56448786  0.73986252  0.69109311     0.36000
C4444       C  0.59328142  0.76568498  0.68777494    -0.26000
C4445       C  0.60338188  0.77702208  0.66695176    -0.15300
C4446       C  0.58407923  0.76271832  0.64902975     0.37100
N4447       N  0.59299437  0.77282895  0.62716485    -0.89500
H4448       H  0.54129108  0.72617478  0.63835840     0.18200
H4449       H  0.60799989  0.77685383  0.70154275     0.18200
N4450       N  0.55518602  0.72878023  0.71260358    -0.88500
H4451       H  0.57781894  0.77930378  0.62100843     0.35500
H4452       H  0.61476005  0.79201702  0.62637601     0.40600
H4453       H  0.57129518  0.72383646  0.71912768     0.40300
H4454       H  0.55556550  0.74634819  0.72182125     0.35100
C4455       C  0.86970456  0.96558092  0.79086891    -0.26600
C4456       C  0.83839064  0.94835744  0.79503588    -0.14700
C4457       C  0.81785324  0.95332068  0.78269356     0.36000
C4458       C  0.82905632  0.97482956  0.76590872    -0.26000
C4459       C  0.86049005  0.99205061  0.76141791    -0.15300
C4460       C  0.88103072  0.98747517  0.77445894     0.37100
N4461       N  0.91115095  0.49573110  0.76705630    -0.89500
H4462       H  0.88556044  0.96227529  0.80070523     0.18200
H4463       H  0.81304093  0.97802129  0.75619752     0.18200
N4464       N  0.78572380  0.93660930  0.78735534    -0.88500
H4465       H  0.92131762  0.02737805  0.77366225     0.35500
H4466       H  0.91337467  0.49105725  0.75090395     0.40600
H4467       H  0.77785418  0.91350191  0.78430266     0.40300
H4468       H  0.77373275  0.94311502  0.77691980     0.35100
C4469       C  0.79171943  0.55476136  0.54831392    -0.26600
C4470       C  0.77963624  0.52419348  0.54196252    -0.14700
C4471       C  0.78408098  0.50411014  0.55513163     0.36000
C4472       C  0.80107373  0.51512316  0.57425930    -0.26000
C4473       C  0.81484126  0.54615116  0.58020055    -0.15300
C4474       C  0.80967687  0.56609779  0.56704994     0.37100
N4475       N  0.82238745  0.59784939  0.57211397    -0.89500
H4476       H  0.78830237  0.57020567  0.53812366     0.18200
H4477       H  0.80497030  0.49957560  0.58395509     0.18200
N4478       N  0.74706284  0.97264100  0.56232362    -0.88500
H4479       H  0.84614308  0.60863264  0.57110187     0.35500
H4480       H  0.81618332  0.59982614  0.58788952     0.40600
H4481       H  0.73144601  0.96930239  0.57454473     0.40300
H4482       H  0.75741291  0.95979705  0.56619098     0.35100
C4483       C  0.00010157  0.71834496  0.55652346    -0.26600
C4484       C  0.98122379  0.70766162  0.53824621    -0.14700
C4485       C  0.95630556  0.67750030  0.53801911     0.36000
C4486       C  0.95040025  0.65894767  0.55631286    -0.26000
C4487       C  0.96889234  0.66975254  0.57491107    -0.15300
C4488       C  0.99432544  0.69995531  0.57475059     0.37100
N4489       N  0.01426539  0.71313016  0.59295900    -0.89500
H4490       H  0.01971036  0.74122819  0.55659002     0.18200
H4491       H  0.93089879  0.63600690  0.55613519     0.18200
N4492       N  0.93701221  0.66588365  0.51923917    -0.88500
H4493       H  0.02480789  0.70030476  0.59624806     0.35500
H4494       H  0.00141982  0.71277547  0.60628849     0.40600
H4495       H  0.92613755  0.67867075  0.51720431     0.40300
H4496       H  0.91980975  0.64325691  0.52162022     0.35100
C4497       C  0.51619239  0.91595704  0.79308959    -0.26600
C4498       C  0.53486217  0.90339552  0.79718646    -0.14700
C4499       C  0.53818779  0.88521502  0.78139948     0.36000
C4500       C  0.52326108  0.88056794  0.76144116    -0.26000
C4501       C  0.50515887  0.89386768  0.75692272    -0.15300
C4502       C  0.50195055  0.91213524  0.77293101     0.37100
N4503       N  0.48465635  0.92707506  0.76863333    -0.89500
H4504       H  0.51383801  0.92992851  0.80540595     0.18200
H4505       H  0.52527772  0.86589289  0.74955335     0.18200
N4506       N  0.55619776  0.87108597  0.78587837    -0.88500
H4507       H  0.49595727  0.94304022  0.75641334     0.35500
H4508       H  0.48448646  0.93944585  0.78215831     0.40600
H4509       H  0.57884788  0.88840680  0.78782127     0.40300
H4510       H  0.55582437  0.85790170  0.77269908     0.35100
C4511       C  0.55985407  0.65802019  0.77470557    -0.26600
C4512       C  0.55071768  0.64314384  0.79465489    -0.14700
C4513       C  0.52268877  0.61545962  0.79595593     0.36000
C4514       C  0.00446811  0.60238291  0.77722193    -0.26000
C4515       C  0.51392904  0.61802474  0.75713212    -0.15300
C4516       C  0.54252490  0.64530624  0.75584520     0.37100
N4517       N  0.55393137  0.66015539  0.73542021    -0.89500
H4518       H  0.58061699  0.67986422  0.77381231     0.18200
H4519       H  0.98262948  0.58154029  0.77848346     0.18200
N4520       N  0.01233447  0.59940253  0.81638583    -0.88500
H4521       H  0.57522921  0.67987104  0.73733211     0.35500
H4522       H  0.55751067  0.64528832  0.72568088     0.40600
H4523       H  0.52782805  0.59319975  0.82120578     0.40300
H4524       H  0.99129839  0.57933545  0.81460871     0.35100
C4525       C  0.65638183  0.72788883  0.67796145    -0.26600
C4526       C  0.64977093  0.71190952  0.65815677    -0.14700
C4527       C  0.64574177  0.72581748  0.63949579     0.36000
C4528       C  0.64914790  0.75499348  0.64103071    -0.26000
C4529       C  0.65675180  0.77106766  0.66064488    -0.15300
C4530       C  0.65998867  0.75716063  0.67944982     0.37100
N4531       N  0.66664977  0.77177442  0.70031556    -0.89500
H4532       H  0.65958142  0.71794682  0.69251860     0.18200
H4533       H  0.64609792  0.76537001  0.62666245     0.18200
N4534       N  0.63807163  0.71110729  0.61877962    -0.88500
H4535       H  0.68808276  0.77554901  0.70513637     0.35500
H4536       H  0.66809037  0.79308713  0.69979739     0.40600
H4537       H  0.61837333  0.68974219  0.62030083     0.40300
H4538       H  0.65613034  0.70840668  0.61335905     0.35100
C4539       C  0.67510415  0.90607423  0.68454095    -0.26600
C4540       C  0.66829255  0.89076538  0.66462758    -0.14700
C4541       C  0.66495530  0.90488723  0.64600002     0.36000
C4542       C  0.66799234  0.93380386  0.64789495    -0.26000
C4543       C  0.67368373  0.94891675  0.66797060    -0.15300
C4544       C  0.67801131  0.93510856  0.68645302     0.37100
N4545       N  0.68509782  0.95036132  0.70706688    -0.89500
H4546       H  0.67809068  0.89520850  0.69866263     0.18200
H4547       H  0.66463538  0.94393496  0.63350296     0.18200
N4548       N  0.65831409  0.89068181  0.62498583    -0.88500
H4549       H  0.68699477  0.93676807  0.71897490     0.35500
H4550       H  0.70660183  0.96994014  0.70579424     0.40600
H4551       H  0.65599321  0.86899807  0.62538820     0.40300
H4552       H  0.63718844  0.88761336  0.62003382     0.35100
C4553       C  0.57905573  0.97591042  0.79100247    -0.26600
C4554       C  0.59343010  0.95966987  0.79750197    -0.14700
C4555       C  0.61556259  0.95913923  0.78398612     0.36000
C4556       C  0.62235750  0.97435308  0.76397093    -0.26000
C4557       C  0.60745842  0.99013292  0.75716259    -0.15300
C4558       C  0.58575695  0.48957665  0.77021720     0.37100
N4559       N  0.56855906  0.50382655  0.76364417    -0.89500
H4560       H  0.56223705  0.97644963  0.80152134     0.18200
H4561       H  0.63984014  0.97438753  0.75385558     0.18200
N4562       N  0.63073028  0.94281848  0.79050979    -0.88500
H4563       H  0.55289615  0.50143533  0.77557260     0.35500
H4564       H  0.55572927  0.49199317  0.75005326     0.40600
H4565       H  0.64396310  0.95386312  0.80413094     0.40300
H4566       H  0.64586571  0.94404020  0.77853762     0.35100
C4567       C  0.62451291  0.61719903  0.77490393    -0.26600
C4568       C  0.63802080  0.63897373  0.75831363    -0.14700
C4569       C  0.64079737  0.66805128  0.76110957     0.36000
C4570       C  0.62938212  0.67429476  0.77986333    -0.26000
C4571       C  0.61362149  0.65158098  0.79529016    -0.15300
C4572       C  0.61222808  0.62318340  0.79320329     0.37100
N4573       N  0.59822439  0.59997698  0.80932839    -0.89500
H4574       H  0.62239805  0.59485142  0.77338789     0.18200
H4575       H  0.63191581  0.69674077  0.78204456     0.18200
N4576       N  0.65428016  0.69104047  0.74479120    -0.88500
H4577       H  0.57562009  0.59479594  0.81119515     0.35500
H4578       H  0.60970194  0.60869127  0.82397387     0.40600
H4579       H  0.67257279  0.71047222  0.75172830     0.40300
H4580       H  0.63801079  0.69676388  0.73980728     0.35100
C4581       C  0.69643121  0.53975202  0.55215981    -0.26600
C4582       C  0.68635912  0.51956174  0.56984621    -0.14700
C4583       C  0.68946148  0.49313175  0.56864119     0.36000
C4584       C  0.70379436  0.48872736  0.55077267    -0.26000
C4585       C  0.71594484  0.51025088  0.53414173    -0.15300
C4586       C  0.71146602  0.53571093  0.53453710     0.37100
N4587       N  0.72245956  0.55834569  0.51774700    -0.89500
H4588       H  0.69401550  0.55988444  0.55240389     0.18200
H4589       H  0.68688541  0.95882960  0.54513627     0.18200
N4590       N  0.65739916  0.96309661  0.57843421    -0.88500
H4591       H  0.73886895  0.57906597  0.52461004     0.35500
H4592       H  0.73340316  0.55334571  0.50546366     0.40600
H4593       H  0.63648048  0.96250399  0.57943449     0.40300
H4594       H  0.66701014  0.96615267  0.59382714     0.35100
C4595       C  0.73303606  0.66846022  0.55745994    -0.26600
C4596       C  0.71034545  0.66779957  0.57085266    -0.14700
C4597       C  0.69443586  0.68278371  0.56409576     0.36000
C4598       C  0.70325298  0.69993546  0.54500837    -0.26000
C4599       C  0.72691793  0.70171300  0.53225431    -0.15300
C4600       C  0.74110319  0.68470737  0.53807638     0.37100
N4601       N  0.76308880  0.68271771  0.52452318    -0.89500
H4602       H  0.74450558  0.65602538  0.56197218     0.18200
H4603       H  0.69215044  0.71264933  0.54029258     0.18200
N4604       N  0.66910418  0.68016432  0.57636079    -0.88500
H4605       H  0.78403854  0.69330198  0.53264608     0.35500
H4606       H  0.76588135  0.69394738  0.50986720     0.40600
H4607       H  0.65171239  0.65731151  0.57564285     0.40300
H4608       H  0.66029105  0.69289757  0.56927364     0.35100
C4609       C  0.49111146  0.56471317  0.97744718    -0.26600
C4610       C  0.99282823  0.55369806  0.99697731    -0.14700
C4611       C  0.99049416  0.56792168  0.01603855     0.36000
C4612       C  0.98626130  0.59323736  0.01440292    -0.26000
C4613       C  0.98459117  0.60520566  0.99423110    -0.15300
C4614       C  0.48783271  0.59055950  0.97569937     0.37100
N4615       N  0.48554872  0.60104572  0.95468141    -0.89500
H4616       H  0.49209853  0.55331712  0.96286290     0.18200
H4617       H  0.98521059  0.60415804  0.02921856     0.18200
N4618       N  0.99275300  0.55775972  0.03728883    -0.88500
H4619       H  0.46670323  0.58328016  0.94679380     0.35500
H4620       H  0.50512510  0.60577353  0.94597285     0.40600
H4621       H  0.99622003  0.53908169  0.03674572     0.40300
H4622       H  0.97189210  0.55040157  0.04504453     0.35100
C4623       C  0.00859859  0.90684005  0.02340912    -0.26600
C4624       C  0.51188011  0.89280135  0.00440407    -0.14700
C4625       C  0.50954258  0.90541373  0.98453522     0.36000
C4626       C  0.50619928  0.93131859  0.98448307    -0.26000
C4627       C  0.50482120  0.94506623  0.00376554    -0.15300
C4628       C  0.00458820  0.93237675  0.02240852     0.37100
N4629       N  0.00047456  0.94453211  0.04236402    -0.89500
H4630       H  0.00786459  0.89701444  0.03908303     0.18200
H4631       H  0.50430634  0.94063042  0.96918490     0.18200
N4632       N  0.50959469  0.89162554  0.96428115    -0.88500
H4633       H  0.02032860  0.95213556  0.05155115     0.35500
H4634       H  0.99783496  0.96349835  0.03981526     0.40600
H4635       H  0.52753028  0.90795380  0.95494974     0.40300
H4636       H  0.48912565  0.88561611  0.95627188     0.35100
C4637       C  0.52350198  0.87179623  0.88223226    -0.26600
C4638       C  0.55148288  0.88017048  0.87222881    -0.14700
C4639       C  0.56793202  0.86571967  0.87854573     0.36000
C4640       C  0.55700493  0.84460347  0.89560563    -0.26000
C4641       C  0.52970750  0.83722604  0.90640178    -0.15300
C4642       C  0.51254633  0.85074566  0.89923666     0.37100
N4643       N  0.98456803  0.84381618  0.90707900    -0.89500
H4644       H  0.51023473  0.88205388  0.87694128     0.18200
H4645       H  0.57034224  0.83439690  0.90082640     0.18200
N4646       N  0.59553702  0.87235794  0.86748810    -0.88500
H4647       H  0.98660719  0.85100187  0.92313333     0.35500
H4648       H  0.97101080  0.82002102  0.90641391     0.40600
H4649       H  0.58975410  0.86487006  0.85150626     0.40300
H4650       H  0.60502308  0.85998790  0.87416363     0.35100
C4651       C  0.58771551  0.71797827  0.87601949    -0.26600
C4652       C  0.57023070  0.68697825  0.87019376    -0.14700
C4653       C  0.54609417  0.66705956  0.88378055     0.36000
C4654       C  0.53985341  0.67842259  0.90263645    -0.26000
C4655       C  0.55694176  0.70960694  0.90835679    -0.15300
C4656       C  0.58132191  0.72942157  0.89486581     0.37100
N4657       N  0.60005726  0.76103889  0.90040470    -0.89500
H4658       H  0.60667877  0.73338565  0.86593204     0.18200
H4659       H  0.52092313  0.66272354  0.91263225     0.18200
N4660       N  0.52778193  0.63512614  0.87897866    -0.88500
H4661       H  0.59907450  0.77404689  0.88765746     0.35500
H4662       H  0.62259906  0.76572174  0.90181295     0.40600
H4663       H  0.54206570  0.62580323  0.87761910     0.40300
H4664       H  0.01835188  0.63047815  0.86514543     0.35100
C4665       C  0.56438021  0.57093527  0.02409436    -0.26600
C4666       C  0.55240843  0.55888142  0.00363738    -0.14700
C4667       C  0.56648886  0.57624271  0.98515447     0.36000
C4668       C  0.59290056  0.60487311  0.98728353    -0.26000
C4669       C  0.60595380  0.61673892  0.00769617    -0.15300
C4670       C  0.59087215  0.59970227  0.02631977     0.37100
N4671       N  0.60233366  0.61126856  0.04750028    -0.89500
H4672       H  0.55322218  0.55782314  0.03841223     0.18200
H4673       H  0.60372039  0.61734556  0.97268293     0.18200
N4674       N  0.55435979  0.56457875  0.96411501    -0.88500
H4675       H  0.60677193  0.59558059  0.05531824     0.35500
H4676       H  0.58519993  0.61254547  0.05607537     0.40600
H4677       H  0.57135268  0.56365031  0.95511814     0.40300
H4678       H  0.54957518  0.58021553  0.95659216     0.35100
C4679       C  0.90532829  0.89630643  0.97405205    -0.26600
C4680       C  0.89263801  0.87993720  0.99323903    -0.14700
C4681       C  0.90714759  0.89321768  0.01318910     0.36000
C4682       C  0.93274128  0.92252196  0.01356586    -0.26000
C4683       C  0.94467348  0.93889820  0.99451133    -0.15300
C4684       C  0.93125270  0.92557976  0.97458007     0.37100
N4685       N  0.94388904  0.94178101  0.95488564    -0.89500
H4686       H  0.89478000  0.88671836  0.95857970     0.18200
H4687       H  0.94319010  0.93267798  0.02893343     0.18200
N4688       N  0.89576323  0.87751462  0.03324964    -0.88500
H4689       H  0.92684620  0.94384001  0.94680667     0.35500
H4690       H  0.94984940  0.92855606  0.94523993     0.40600
H4691       H  0.91318442  0.87541375  0.04070313     0.40300
H4692       H  0.89044012  0.89093923  0.04322087     0.35100
C4693       C  0.77233527  0.84591434  0.87175868    -0.26600
C4694       C  0.80092090  0.87241770  0.87094586    -0.14700
C4695       C  0.81895206  0.88325671  0.88973459     0.36000
C4696       C  0.80796817  0.86723787  0.90914936    -0.26000
C4697       C  0.77932066  0.84037880  0.91016128    -0.15300
C4698       C  0.76106676  0.82988760  0.89117684     0.37100
N4699       N  0.73146756  0.80279387  0.89143063    -0.89500
H4700       H  0.75837541  0.83828503  0.85727641     0.18200
H4701       H  0.82219532  0.87552823  0.92346917     0.18200
N4702       N  0.84825456  0.91065630  0.88898197    -0.88500
H4703       H  0.72204848  0.79744768  0.87589454     0.35500
H4704       H  0.71709514  0.80771245  0.90060685     0.40600
H4705       H  0.86224737  0.90644896  0.87881084     0.40300
H4706       H  0.85857826  0.91583195  0.90423694     0.35100
C4707       C  0.61584564  0.66111251  0.88752451    -0.26600
C4708       C  0.62620942  0.68299158  0.87111223    -0.14700
C4709       C  0.65452738  0.71017839  0.87330525     0.36000
C4710       C  0.67184719  0.71463766  0.89192425    -0.26000
C4711       C  0.66128667  0.69318306  0.90883449    -0.15300
C4712       C  0.63272476  0.66595460  0.90642519     0.37100
N4713       N  0.61972412  0.64312234  0.92288842    -0.89500
H4714       H  0.59428860  0.64006383  0.88565817     0.18200
H4715       H  0.69350486  0.73569061  0.89333460     0.18200
N4716       N  0.66624068  0.73390125  0.85726835    -0.88500
H4717       H  0.61668350  0.65293228  0.93687965     0.35500
H4718       H  0.63452027  0.63477332  0.92603597     0.40600
H4719       H  0.65122193  0.72865551  0.84429908     0.40300
H4720       H  0.66809142  0.75350091  0.86448161     0.35100
C4721       C  0.92928627  0.49913614  0.97438817    -0.26600
C4722       C  0.93947221  0.49445137  0.99435788    -0.14700
C4723       C  0.92279225  0.99317003  0.01193616     0.36000
C4724       C  0.89742514  0.99719158  0.01037188    -0.26000
C4725       C  0.88684923  0.50075258  0.99181656    -0.15300
C4726       C  0.90322035  0.50234976  0.97285688     0.37100
N4727       N  0.89374415  0.50764482  0.95219667    -0.89500
H4728       H  0.94244564  0.50140274  0.96001408     0.18200
H4729       H  0.88585486  0.99680192  0.02519414     0.18200
N4730       N  0.93197752  0.98910961  0.03310660    -0.88500
H4731       H  0.90787409  0.50751317  0.93992654     0.35500
H4732       H  0.89669600  0.52965181  0.95253645     0.40600
H4733       H  0.95096543  0.98621476  0.03256516     0.40300
H4734       H  0.91415338  0.96885005  0.03940893     0.35100
C4735       C  0.59626747  0.49578952  0.98799949    -0.26600
C4736       C  0.60842322  0.99482190  0.00961193    -0.14700
C4737       C  0.59409917  0.99769296  0.02837611     0.36000
C4738       C  0.56923837  0.00267198  0.02636424    -0.26000
C4739       C  0.55806274  0.00426577  0.00597305    -0.15300
C4740       C  0.57082806  0.49957429  0.98605641     0.37100
N4741       N  0.55848423  0.49905357  0.96511414    -0.89500
H4742       H  0.60602646  0.49255321  0.97334326     0.18200
H4743       H  0.55790086  0.00417689  0.04076054     0.18200
N4744       N  0.60412694  0.99487236  0.04944745    -0.88500
H4745       H  0.55315345  0.47843057  0.95756748     0.35500
H4746       H  0.57560620  0.51664348  0.95601385     0.40600
H4747       H  0.58572730  0.97679650  0.05734101     0.40300
H4748       H  0.61015651  0.01493836  0.05807590     0.35100
C4749       C  0.63934436  0.94424759  0.87268244    -0.26600
C4750       C  0.61027998  0.94112807  0.87405518    -0.14700
C4751       C  0.60178872  0.94997869  0.89322784     0.33300
C4752       C  0.62233099  0.96142150  0.91076526    -0.26000
C4753       C  0.65136904  0.96397114  0.90963529    -0.15300
C4754       C  0.65972621  0.95518448  0.89021834     0.37100
N4755       N  0.68892638  0.95732259  0.88809883    -0.89500
H4756       H  0.64617832  0.93781974  0.85787817     0.18200
H4757       H  0.61783437  0.46906158  0.92317459     0.18200
N4758       N  0.57251413  0.94778197  0.89483104    -0.88500
H4759       H  0.70020714  0.97151613  0.87499988     0.35500
H4760       H  0.68537243  0.93552881  0.88455381     0.40600
H4761       H  0.57595296  0.96957208  0.89819813     0.40300
H4762       H  0.56382850  0.43524160  0.90549676     0.35100
C4763       C  0.80483471  0.95686319  0.90107171    -0.26600
C4764       C  0.77475990  0.93775999  0.90817598    -0.14700
C4765       C  0.75425773  0.91321726  0.89500445     0.36000
C4766       C  0.76446029  0.90763916  0.87535828    -0.26000
C4767       C  0.79479550  0.92629161  0.86869018    -0.15300
C4768       C  0.81487267  0.95146781  0.88139824     0.37100
N4769       N  0.84569952  0.97114729  0.87458530    -0.89500
H4770       H  0.82062468  0.97639470  0.91071370     0.18200
H4771       H  0.74893283  0.88819137  0.86555493     0.18200
N4772       N  0.72344826  0.89345601  0.90177910    -0.88500
H4773       H  0.86029852  0.97127953  0.88660785     0.35500
H4774       H  0.84919975  0.99330169  0.87335887     0.40600
H4775       H  0.71979250  0.87120086  0.90253856     0.40300
H4776       H  0.70890128  0.89389446  0.88995028     0.35100
C4777       C  0.96345516  0.82250895  0.09976637    -0.26600
C4778       C  0.94471573  0.79170171  0.09350193    -0.14700
C4779       C  0.91913337  0.77281120  0.10648639     0.36000
C4780       C  0.91277745  0.78518783  0.12498196    -0.26000
C4781       C  0.93155248  0.81595440  0.13108190    -0.15300
C4782       C  0.95731603  0.83455347  0.11843039     0.37100
N4783       N  0.97700700  0.86591743  0.12424470    -0.89500
H4784       H  0.98344366  0.83736527  0.09030833     0.18200
H4785       H  0.89284976  0.77081367  0.13465163     0.18200
N4786       N  0.89946044  0.74128207  0.10076735    -0.88500
H4787       H  0.97781552  0.87946123  0.11124565     0.35500
H4788       H  0.99896500  0.86931052  0.12655460     0.40600
H4789       H  0.88900818  0.74071697  0.08605679     0.40300
H4790       H  0.88194185  0.73050835  0.11208090     0.35100
C4791       C  0.84548514  0.79729458  0.13030669    -0.26600
C4792       C  0.87565902  0.82143070  0.12949752    -0.14700
C4793       C  0.88649071  0.83913410  0.11062669     0.36000
C4794       C  0.86758229  0.83078119  0.09231593    -0.26000
C4795       C  0.83775256  0.80556400  0.09268940    -0.15300
C4796       C  0.82640021  0.78924563  0.11227589     0.37100
N4797       N  0.79555638  0.76486888  0.11463372    -0.89500
H4798       H  0.83675537  0.78439416  0.14510114     0.18200
H4799       H  0.87646480  0.84373153  0.07757194     0.18200
N4800       N  0.91648352  0.86562416  0.11021649    -0.88500
H4801       H  0.79214024  0.74633057  0.10511356     0.35500
H4802       H  0.78078655  0.77253722  0.10964854     0.40600
H4803       H  0.91681785  0.88142338  0.12132382     0.40300
H4804       H  0.92103752  0.87607003  0.09506397     0.35100
C4805       C  0.83398214  0.60057499  0.31813588    -0.26600
C4806       C  0.82941996  0.60988944  0.33845068    -0.14700
C4807       C  0.82157405  0.58977743  0.35620596     0.36000
C4808       C  0.81966119  0.56141716  0.35322480    -0.26000
C4809       C  0.82575506  0.55252392  0.33309426    -0.15300
C4810       C  0.83202695  0.57209531  0.31514498     0.37100
N4811       N  0.83722897  0.56355792  0.29407576    -0.89500
H4812       H  0.83935208  0.61585400  0.30452325     0.18200
H4813       H  0.81438860  0.54667274  0.36714327     0.18200
N4814       N  0.81592267  0.59733405  0.37750409    -0.88500
H4815       H  0.84287458  0.58114577  0.28298580     0.35500
H4816       H  0.81658291  0.54508426  0.28875711     0.40600
H4817       H  0.81871161  0.61919668  0.37816235     0.40300
H4818       H  0.83226406  0.59749014  0.38794363     0.35100
C4819       C  0.85581114  0.77858545  0.36089672    -0.26600
C4820       C  0.85203112  0.79083660  0.34152210    -0.14700
C4821       C  0.84402077  0.77248434  0.32250885     0.36000
C4822       C  0.83954441  0.74289766  0.32348700    -0.26000
C4823       C  0.84275224  0.73066803  0.34289121    -0.15300
C4824       C  0.85116724  0.74882539  0.36187785     0.37100
N4825       N  0.85507654  0.73796772  0.38240340    -0.89500
H4826       H  0.86182157  0.79200348  0.37564565     0.18200
H4827       H  0.83348924  0.72920984  0.30885616     0.18200
N4828       N  0.83943515  0.78265643  0.30200958    -0.88500
H4829       H  0.83889879  0.73779480  0.39299261     0.35500
H4830       H  0.85050440  0.71548777  0.38139410     0.40600
H4831       H  0.85969854  0.80209062  0.29741809     0.40300
H4832       H  0.82189487  0.78780160  0.30336330     0.35100
C4833       C  0.81816849  0.00490026  0.43838695    -0.26600
C4834       C  0.81087864  0.97475099  0.43355853    -0.14700
C4835       C  0.79135965  0.95109982  0.44799813     0.36000
C4836       C  0.77855163  0.95784681  0.46563801    -0.26000
C4837       C  0.78447820  0.98755171  0.46961551    -0.15300
C4838       C  0.80536316  0.01164564  0.45624877     0.37100
N4839       N  0.81348433  0.04294672  0.45987041    -0.89500
H4840       H  0.83326667  0.02337820  0.42783299     0.18200
H4841       H  0.76268282  0.93936779  0.47591011     0.18200
N4842       N  0.78274776  0.91969448  0.44484695    -0.88500
H4843       H  0.80568221  0.04994055  0.44663166     0.35500
H4844       H  0.80275828  0.04539940  0.47349270     0.40600
H4845       H  0.80232687  0.91768557  0.44521728     0.40300
H4846       H  0.77158735  0.91214124  0.42997750     0.35100
C4847       C  0.77941816  0.83648440  0.44620943    -0.26600
C4848       C  0.78599332  0.82730651  0.42641613    -0.14700
C4849       C  0.78460757  0.79867099  0.42505065     0.36000
C4850       C  0.77806689  0.78074689  0.44364759    -0.26000
C4851       C  0.77134183  0.78988949  0.46329882    -0.15300
C4852       C  0.77195646  0.81813177  0.46462051     0.37100
N4853       N  0.76447760  0.82865380  0.48404862    -0.89500
H4854       H  0.78040442  0.85833968  0.44754685     0.18200
H4855       H  0.77724675  0.75894558  0.44270641     0.18200
N4856       N  0.78942926  0.78764358  0.40481417    -0.88500
H4857       H  0.78413517  0.84849248  0.48912541     0.35500
H4858       H  0.75825822  0.81295193  0.49659503     0.40600
H4859       H  0.77164150  0.78416914  0.39442944     0.40300
H4860       H  0.78787135  0.76635612  0.40673631     0.35100
C4861       C  0.86885742  0.82982567  0.21908538    -0.26600
C4862       C  0.88884152  0.85338285  0.20543072    -0.14700
C4863       C  0.89553743  0.88341288  0.20936594     0.36000
C4864       C  0.88358500  0.88987474  0.22769236    -0.26000
C4865       C  0.86514187  0.86668899  0.24239325    -0.15300
C4866       C  0.85719490  0.83620279  0.23766694     0.37100
N4867       N  0.83766293  0.81169230  0.25170446    -0.89500
H4868       H  0.86276508  0.80643898  0.21553275     0.18200
H4869       H  0.88985946  0.91342317  0.23077685     0.18200
N4870       N  0.91473609  0.90740328  0.19486016    -0.88500
H4871       H  0.84952072  0.80076169  0.25671839     0.35500
H4872       H  0.81866867  0.79596864  0.24277186     0.40600
H4873       H  0.90242637  0.91752172  0.18914713     0.40300
H4874       H  0.93346905  0.92389304  0.20362524     0.35100
C4875       C  0.73164996  0.57625188  0.32227092    -0.26600
C4876       C  0.71575978  0.56418156  0.34175489    -0.14700
C4877       C  0.72976662  0.57937752  0.36131374     0.36000
C4878       C  0.75921083  0.60513355  0.36107704    -0.26000
C4879       C  0.77534429  0.61621337  0.34173364    -0.15300
C4880       C  0.76118730  0.60193528  0.32215833     0.37100
N4881       N  0.77684959  0.61344219  0.30211910    -0.89500
H4882       H  0.72161014  0.56515796  0.30702182     0.18200
H4883       H  0.76968030  0.61632322  0.37618506     0.18200
N4884       N  0.71436013  0.56876432  0.38153910    -0.88500
H4885       H  0.76349388  0.61905806  0.29237029     0.35500
H4886       H  0.77853262  0.59587802  0.29444758     0.40600
H4887       H  0.72792592  0.56377947  0.39157653     0.40300
H4888       H  0.71254443  0.58656908  0.38867904     0.35100
C4889       C  0.90319905  0.73816877  0.31639021    -0.26600
C4890       C  0.89586837  0.72417510  0.33674926    -0.14700
C4891       C  0.91809688  0.73571347  0.35333574     0.36000
C4892       C  0.94688460  0.76077009  0.34911580    -0.26000
C4893       C  0.95409673  0.77579580  0.32903521    -0.15300
C4894       C  0.93196436  0.76387710  0.31230346     0.37100
N4895       N  0.93830998  0.77813269  0.29143273    -0.89500
H4896       H  0.88626049  0.72888933  0.30360773     0.18200
H4897       H  0.96336657  0.76929369  0.36219406     0.18200
N4898       N  0.91232652  0.72306480  0.37472577    -0.88500
H4899       H  0.91914893  0.76725888  0.28136729     0.35500
H4900       H  0.95522173  0.77492607  0.28427493     0.40600
H4901       H  0.88997821  0.70519329  0.37633367     0.40300
H4902       H  0.91465269  0.74011591  0.38546897     0.35100
C4903       C  0.55496690  0.83205797  0.44337320    -0.26600
C4904       C  0.53467042  0.82474909  0.42582081    -0.14700
C4905       C  0.50601296  0.79741065  0.42682292     0.36000
C4906       C  0.49840820  0.77843601  0.44500974    -0.26000
C4907       C  0.51882086  0.78577237  0.46228856    -0.15300
C4908       C  0.54724260  0.81290278  0.46149339     0.37100
N4909       N  0.56846827  0.82089735  0.47900017    -0.89500
H4910       H  0.57712691  0.85264588  0.44304008     0.18200
H4911       H  0.47624950  0.75788338  0.44568591     0.18200
N4912       N  0.48461681  0.78836536  0.40932761    -0.88500
H4913       H  0.57330787  0.84224644  0.48495915     0.35500
H4914       H  0.58869225  0.82303658  0.47285767     0.40600
H4915       H  0.46426076  0.78609890  0.41530011     0.40300
H4916       H  0.48012500  0.76692296  0.40380332     0.35100
C4917       C  0.68162027  0.93002230  0.43840531    -0.26600
C4918       C  0.68824938  0.95082544  0.42137762    -0.14700
C4919       C  0.71324264  0.98097818  0.42378827     0.36000
C4920       C  0.72869154  0.99016013  0.44370547    -0.26000
C4921       C  0.72042856  0.96987446  0.46108140    -0.15300
C4922       C  0.69748447  0.93904776  0.45809943     0.37100
N4923       N  0.68916226  0.91646825  0.47475380    -0.89500
H4924       H  0.66304743  0.90669327  0.43683520     0.18200
H4925       H  0.74668025  0.01362845  0.44595842     0.18200
N4926       N  0.72231539  0.00252212  0.40636362    -0.88500
H4927       H  0.69343864  0.89956584  0.46882882     0.35500
H4928       H  0.70285551  0.92545373  0.48846959     0.40600
H4929       H  0.73043287  0.99449254  0.39389933     0.40300
H4930       H  0.74055375  0.02374858  0.41103850     0.35100
C4931       C  0.96117132  0.85431211  0.24477886    -0.26600
C4932       C  0.98547051  0.88477774  0.24544649    -0.14700
C4933       C  0.99099604  0.90287379  0.22674764     0.36000
C4934       C  0.97321301  0.89008343  0.20796257    -0.26000
C4935       C  0.94980773  0.85941643  0.20717569    -0.15300
C4936       C  0.94362841  0.84135758  0.22599678     0.37100
N4937       N  0.92002198  0.80977835  0.22668666    -0.89500
H4938       H  0.95620863  0.83983639  0.25881709     0.18200
H4939       H  0.97765642  0.90433095  0.19384885     0.18200
N4940       N  0.01483234  0.93417865  0.22653701    -0.88500
H4941       H  0.93041264  0.79683725  0.23010913     0.35500
H4942       H  0.90942469  0.80211008  0.21168933     0.40600
H4943       H  0.00507869  0.94764849  0.22291893     0.40300
H4944       H  0.02997868  0.93688256  0.21412320     0.35100
C4945       C  0.93889818  0.65250275  0.10489886    -0.26600
C4946       C  0.96519546  0.65846088  0.09325153    -0.14700
C4947       C  0.98050185  0.64249901  0.09888254     0.36000
C4948       C  0.96907468  0.62077129  0.11554043    -0.26000
C4949       C  0.94229745  0.61422459  0.12660944    -0.15300
C4950       C  0.92741902  0.63060780  0.12144695     0.37100
N4951       N  0.90097094  0.62548196  0.13328226    -0.89500
H4952       H  0.92667735  0.66434181  0.10082097     0.18200
H4953       H  0.98119247  0.60891135  0.11987473     0.18200
N4954       N  0.00789819  0.64855000  0.08795530    -0.88500
H4955       H  0.42392917  0.65989033  0.14627333     0.35500
H4956       H  0.88301744  0.61895194  0.12230272     0.40600
H4957       H  0.00437937  0.62808774  0.08110659     0.40300
H4958       H  0.02531469  0.65563108  0.09946360     0.35100
C4959       C  0.85450844  0.55015293  0.12805894    -0.26600
C4960       C  0.88343507  0.55293477  0.12611503    -0.14700
C4961       C  0.89066017  0.54260141  0.10690741     0.36000
C4962       C  0.86911997  0.53060257  0.09008204    -0.26000
C4963       C  0.84032304  0.52840880  0.09176345    -0.15300
C4964       C  0.83291098  0.53808836  0.11119848     0.37100
N4965       N  0.80356352  0.53572165  0.11382541    -0.89500
H4966       H  0.84877502  0.55751913  0.14292272     0.18200
H4967       H  0.87532719  0.52341562  0.07534543     0.18200
N4968       N  0.91908069  0.54303365  0.10401601    -0.88500
H4969       H  0.80203702  0.54436046  0.12886110     0.35500
H4970       H  0.78714334  0.51249446  0.11374819     0.40600
H4971       H  0.93276352  0.55062688  0.11781587     0.40300
H4972       H  0.93103087  0.55850452  0.09166698     0.35100
C4973       C  0.88320001  0.53864986  0.21567700    -0.26600
C4974       C  0.90431586  0.53674910  0.20212372    -0.14700
C4975       C  0.91942791  0.52135225  0.20923779     0.36000
C4976       C  0.91413127  0.50929354  0.23021939    -0.26000
C4977       C  0.89362001  0.51187262  0.24425827    -0.15300
C4978       C  0.87774851  0.52659577  0.23657718     0.37100
N4979       N  0.85105675  0.02841276  0.24726911    -0.89500
H4980       H  0.87177066  0.55075443  0.21026296     0.18200
H4981       H  0.92597948  0.49758216  0.23554732     0.18200
N4982       N  0.94041676  0.51844203  0.19517222    -0.88500
H4983       H  0.86643217  0.54218171  0.26321108     0.35500
H4984       H  0.83342619  0.00646122  0.25100375     0.40600
H4985       H  0.92798058  0.50509158  0.18193378     0.40300
H4986       H  0.94989007  0.50670303  0.20285084     0.35100
C4987       C  0.73242555  0.64186352  0.12485254    -0.26600
C4988       C  0.70167404  0.62737486  0.13087084    -0.14700
C4989       C  0.67997392  0.62748436  0.11684266     0.36000
C4990       C  0.68928367  0.64204905  0.09687326    -0.26000
C4991       C  0.72018434  0.65697940  0.09069817    -0.15300
C4992       C  0.74197454  0.65661191  0.10498123     0.37100
N4993       N  0.77369280  0.67024895  0.09971912    -0.89500
H4994       H  0.74908106  0.64136348  0.13562068     0.18200
H4995       H  0.67220788  0.64232307  0.08643414     0.18200
N4996       N  0.64843215  0.61265679  0.12281304    -0.88500
H4997       H  0.78327348  0.69391160  0.09880700     0.35500
H4998       H  0.77571915  0.66168556  0.08479158     0.40600
H4999       H  0.63582638  0.59634641  0.11096725     0.40300
H5000       H  0.64153365  0.62900969  0.12274314     0.35100
C5001       C  0.72922532  0.57658578  0.12980356    -0.26600
C5002       C  0.69876377  0.56905021  0.13231076    -0.14700
C5003       C  0.67818430  0.55583833  0.11483005     0.36000
C5004       C  0.68884352  0.55117857  0.09513466    -0.26000
C5005       C  0.71952963  0.55900602  0.09235105    -0.15300
C5006       C  0.74004502  0.57224535  0.10997272     0.37100
N5007       N  0.77182378  0.58163106  0.10772596    -0.89500
H5008       H  0.74500222  0.58741809  0.14312399     0.18200
H5009       H  0.67262258  0.54074461  0.08200957     0.18200
N5010       N  0.64650643  0.54724521  0.11634955    -0.88500
H5011       H  0.78344787  0.59015873  0.12234730     0.35500
H5012       H  0.78126555  0.59979923  0.09681405     0.40600
H5013       H  0.64089713  0.55097664  0.13184636     0.40300
H5014       H  0.63356627  0.52369082  0.11362887     0.35100
C5015       C  0.63123643  0.54122831  0.21409002    -0.26600
C5016       C  0.66197484  0.55451781  0.20812589    -0.14700
C5017       C  0.68115373  0.54645243  0.21927456     0.36000
C5018       C  0.67385666  0.02877116  0.23842477    -0.26000
C5019       C  0.63867421  0.51195806  0.24232636    -0.15300
C5020       C  0.61940261  0.52000928  0.23103243     0.37100
N5021       N  0.58805804  0.50741370  0.23705923    -0.89500
H5022       H  0.61626801  0.54706811  0.20537587     0.18200
H5023       H  0.68958938  0.02517829  0.24816932     0.18200
N5024       N  0.71261688  0.55973744  0.21339231    -0.88500
H5025       H  0.57452147  0.49626437  0.22356861     0.35500
H5026       H  0.58447031  0.52546361  0.24116592     0.40600
H5027       H  0.72589959  0.57097202  0.22696049     0.40300
H5028       H  0.72401981  0.04959321  0.21363125     0.35100
C5029       C  0.73839909  0.67443975  0.36050458    -0.26600
C5030       C  0.72463181  0.67250448  0.34032365    -0.14700
C5031       C  0.74021763  0.67257064  0.32132857     0.36000
C5032       C  0.76870072  0.67448035  0.32291094    -0.26000
C5033       C  0.78199747  0.67585047  0.34301618    -0.15300
C5034       C  0.76665577  0.67576378  0.36212348     0.37100
N5035       N  0.77883121  0.67687993  0.38333225    -0.89500
H5036       H  0.72708196  0.67472423  0.37528855     0.18200
H5037       H  0.78026329  0.67411572  0.30826865     0.18200
N5038       N  0.72742104  0.67074211  0.30033692    -0.88500
H5039       H  0.76327433  0.65711359  0.39152773     0.35500
H5040       H  0.79919737  0.67644930  0.38260965     0.40600
H5041       H  0.72534520  0.65146356  0.29243227     0.40300
H5042       H  0.74270604  0.69004661  0.29158639     0.35100
C5043       C  0.93316574  0.66136167  0.34998233    -0.26600
C5044       C  0.94820594  0.67003643  0.32993453    -0.14700
C5045       C  0.93351758  0.67533119  0.31244701     0.36000
C5046       C  0.90451731  0.67222600  0.31555931    -0.26000
C5047       C  0.89018132  0.66473188  0.33585246    -0.15300
C5048       C  0.90467947  0.65890218  0.35326045     0.37100
N5049       N  0.89156521  0.65072286  0.37449165    -0.89500
H5050       H  0.94368618  0.65647077  0.36348844     0.18200
H5051       H  0.89343761  0.67684030  0.30228557     0.18200
N5052       N  0.94825100  0.68449870  0.29179464    -0.88500
H5053       H  0.90678203  0.66713785  0.38539437     0.35500
H5054       H  0.87138625  0.65140934  0.37554167     0.40600
H5055       H  0.96763175  0.70603724  0.29378763     0.40300
H5056       H  0.93420462  0.68719247  0.28067257     0.35100
C5057       C  0.54851015  0.71467105  0.44159465    -0.26600
C5058       C  0.52683902  0.69956688  0.42507413    -0.14700
C5059       C  0.49720862  0.69554107  0.42757111     0.36000
C5060       C  0.99028988  0.70183013  0.44867206    -0.26000
C5061       C  0.51262519  0.72365164  0.46172219    -0.15300
C5062       C  0.54171376  0.72665395  0.45971358     0.37100
N5063       N  0.56486755  0.74198826  0.47583277    -0.89500
H5064       H  0.57132502  0.71797619  0.44027735     0.18200
H5065       H  0.96673203  0.69506751  0.45205215     0.18200
N5066       N  0.97318566  0.66642829  0.41763070    -0.88500
H5067       H  0.55671930  0.73070506  0.49053675     0.35500
H5068       H  0.56890927  0.76428800  0.47751956     0.40600
H5069       H  0.95198751  0.66292199  0.42275927     0.40300
H5070       H  0.97269220  0.64564780  0.41964789     0.35100
C5071       C  0.69335823  0.71378556  0.42489097    -0.26600
C5072       C  0.67849819  0.73082458  0.42228992    -0.14700
C5073       C  0.68035140  0.75069883  0.43913662     0.36000
C5074       C  0.69698209  0.75310823  0.45787388    -0.26000
C5075       C  0.71147870  0.73578157  0.46041513    -0.15300
C5076       C  0.70972029  0.71590771  0.44363912     0.37100
N5077       N  0.72434545  0.69775849  0.44486800    -0.89500
H5078       H  0.69187315  0.69809202  0.41232390     0.18200
H5079       H  0.69887694  0.76886015  0.47052591     0.18200
N5080       N  0.66637831  0.76925075  0.43753466    -0.88500
H5081       H  0.74044956  0.70478207  0.43245816     0.35500
H5082       H  0.73633462  0.70127745  0.45929847     0.40600
H5083       H  0.64272060  0.75506775  0.43669185     0.40300
H5084       H  0.67403472  0.78218033  0.42340518     0.35100
C5085       C  0.50829825  0.60359367  0.22241810    -0.26600
C5086       C  0.99283266  0.60701007  0.24189033    -0.14700
C5087       C  0.96493387  0.60700057  0.24028199     0.36000
C5088       C  0.94985823  0.60104725  0.22033059    -0.26000
C5089       C  0.96146230  0.59422217  0.20189855    -0.15300
C5090       C  0.98933592  0.59433702  0.20335043     0.37100
N5091       N  0.50636319  0.59295410  0.18393221    -0.89500
H5092       H  0.53106205  0.60660768  0.22238445     0.18200
H5093       H  0.92847661  0.60106020  0.21932126     0.18200
N5094       N  0.95157438  0.61276689  0.25881186    -0.88500
H5095       H  0.50974843  0.60971649  0.17269739     0.35500
H5096       H  0.98711081  0.56707546  0.17844070     0.40600
H5097       H  0.92982618  0.59384386  0.26106510     0.40300
H5098       H  0.94904782  0.63166759  0.25551663     0.35100
C5099       C  0.67620709  0.64138398  0.24147003    -0.26600
C5100       C  0.64968757  0.64381020  0.23986122    -0.14700
C5101       C  0.63195911  0.63334684  0.22077344     0.36000
C5102       C  0.64020689  0.61974652  0.20431347    -0.26000
C5103       C  0.66588269  0.61626616  0.20637488    -0.15300
C5104       C  0.68453687  0.62784539  0.22487012     0.37100
N5105       N  0.71180206  0.62581475  0.22669238    -0.89500
H5106       H  0.69007776  0.64928093  0.25597207     0.18200
H5107       H  0.62637162  0.61172796  0.18978431     0.18200
N5108       N  0.60554387  0.63647342  0.21793736    -0.88500
H5109       H  0.72291669  0.63524861  0.24134121     0.35500
H5110       H  0.72666871  0.63917631  0.21444369     0.40600
H5111       H  0.58670533  0.61470147  0.21542367     0.40300
H5112       H  0.60862364  0.64933459  0.20400304     0.35100
loop_ 
_geom_bond_atom_site_label_1 
_geom_bond_atom_site_label_2 
_geom_bond_distance 
_geom_bond_site_symmetry_2 
_ccdc_geom_bond_type 
O1           Mg3   2.153       .  S
O1           Mg9   2.155       .  S
O1           C36   1.235       .  S
C2           O15   1.233       .  S
C2           O39   1.269       .  A
C2           H41   1.081       .  S
Mg3          O32   2.156       .  S
Mg3          O47   2.273   1_455  S
Mg3          O43   2.274       .  S
Mg3          O14   2.294       .  S
O4          Mg46   2.162       .  S
O4          Mg29   2.143       .  S
O4           C25   1.235       .  S
O5           C36   1.270       .  A
O5          Mg29   2.302       .  S
C6            O8   1.269       .  A
C6           O20   1.272       .  A
C6         C1238   1.484       .  S
O7           C35   1.270       .  A
O7           Mg9   2.305       .  S
O8          Mg40   2.263       .  S
Mg9          O15   2.164       .  S
Mg9          O11   2.299       .  S
Mg9        O2579   2.296   1_455  S
C10          O48   1.270       .  A
C10          O16   1.274       .  A
C10        C1196   1.493       .  S
O11          C18   1.275       .  A
H12          C25   1.081       .  S
C13          O27   1.235       .  S
C13          O28   1.270       .  A
C13          H38   1.081       .  S
O14          C37   1.268       .  A
O15         Mg29   2.165       .  S
O16         Mg46   2.302       .  S
C17          O30   1.273       .  A
C17          O22   1.275       .  A
C17        C1266   1.495       .  S
C18          O45   1.271       .  A
C18        C3808   1.486   1_455  S
Mg19         O26   2.140       .  S
Mg19         O27   2.160       .  S
Mg19         O20   2.281       .  S
Mg19         O21   2.294       .  S
Mg19         O48   2.248       .  S
O21          C25   1.269       .  A
O22         Mg29   2.310       .  S
O23          C42   1.274       .  A
O23       Mg2565   2.297       .  S
O24          C44   1.274       .  A
O24         Mg40   2.296       .  S
O26         Mg40   2.150       .  S
O26          C37   1.234       .  S
O27         Mg46   2.148       .  S
O28         Mg40   2.305       .  S
Mg29         O45   2.247       .  S
O30         Mg46   2.270       .  S
H31          C36   1.081       .  S
O32         Mg40   2.144       .  S
O32          C35   1.235       .  S
H33          C35   1.081       .  S
H34          C37   1.081       .  S
O39         Mg46   2.303       .  S
C42        O2603   1.270       .  A
C42        C1210   1.490       .  S
O43          C44   1.272       .  A
C44        C1224   1.494       .  S
O47        C2598   1.272       .  A
C49        C1269   1.484       .  S
C49          C50   1.420       .  A
C49          C54   1.403       .  A
C50        C1182   1.485       .  S
C50          C51   1.407       .  A
C51          H56   1.084       .  S
C51          C52   1.399       .  A
C52        C1168   1.480       .  S
C52          C53   1.407       .  A
C53        C1154   1.478       .  S
C53          C54   1.399       .  A
C54          H55   1.084       .  S
C57        C1140   1.481       .  S
C57          C58   1.410       .  A
C57          C62   1.400       .  A
C58        C1255   1.484       .  S
C58          C59   1.401       .  A
C59          H64   1.084       .  S
C59          C60   1.406       .  A
C60        C1115   1.485       .  S
C60          C61   1.421       .  A
C61        C1126   1.489       .  S
C61          C62   1.406       .  A
C62          H63   1.084       .  S
O65         Mg67   2.142       .  S
O65         Mg73   2.154       .  S
O65         C100   1.234       .  S
C66          O79   1.235       .  S
C66         O103   1.269       .  A
C66         H105   1.081       .  S
Mg67         O96   2.166       .  S
Mg67        O107   2.256       .  S
Mg67         O78   2.304       .  S
Mg67       O1389   2.305       .  S
O68        Mg110   2.153       .  S
O68         Mg93   2.149       .  S
O68          C89   1.235       .  S
O69         C100   1.268       .  A
O69         Mg93   2.294       .  S
C70          O72   1.275       .  A
C70          O84   1.276       .  A
C70        C3654   1.502   1_455  S
O71          C99   1.271       .  A
O71         Mg73   2.308       .  S
O72        Mg104   2.296       .  S
Mg73         O79   2.145       .  S
Mg73         O75   2.293       .  S
Mg73       O1365   2.275       .  S
C74         O112   1.273       .  A
C74        O2636   1.273       .  A
C74        C1059   1.498       .  S
O75          C82   1.274       .  A
H76          C89   1.081       .  S
C77          O91   1.234       .  S
C77          O92   1.269       .  A
C77         H102   1.081   1_455  S
O78         C101   1.270       .  A
O79         Mg93   2.171       .  S
O80        C2630   1.273       .  A
O80        Mg110   2.284   1_655  S
C81          O94   1.271       .  A
C81          O86   1.276       .  A
C81        C1070   1.494       .  S
C82         O109   1.274       .  A
C82        C1084   1.491       .  S
Mg83         O90   2.159       .  S
Mg83         O91   2.152       .  S
Mg83         O84   2.309       .  S
Mg83         O85   2.304       .  S
Mg83       O2668   2.282   1_455  S
O85          C89   1.270       .  A
O86         Mg93   2.307       .  S
O87         C106   1.272       .  A
O87       Mg1351   2.272   1_545  S
O88         C108   1.274       .  A
O88        Mg104   2.297       .  S
O90        Mg104   2.161       .  S
O90         C101   1.235       .  S
O91        Mg110   2.156       .  S
O92        Mg104   2.304       .  S
Mg93        O109   2.270       .  S
O94        Mg110   2.263       .  S
H95         C100   1.081       .  S
O96        Mg104   2.172       .  S
O96          C99   1.236       .  S
H97          C99   1.081       .  S
H98         C101   1.081       .  S
O103       Mg110   2.294       .  S
C106        O111   1.277       .  A
C106       C1042   1.494       .  S
O107        C108   1.271       .  A
C108       C2463   1.485       .  S
O111      Mg1345   2.317   1_545  S
O112      Mg2639   2.295       .  S
O113       Mg115   2.141       .  S
O113       Mg121   2.159       .  S
O113        C148   1.236       .  S
C114        O127   1.236       .  S
C114        O151   1.272       .  A
C114        H153   1.081       .  S
Mg115       O144   2.153       .  S
Mg115       O159   2.292       .  S
Mg115       O155   2.262       .  S
Mg115       O126   2.298       .  S
O116       Mg158   2.132       .  S
O116       Mg141   2.133       .  S
O116        C137   1.233       .  S
O117        C148   1.271       .  A
O117       Mg141   2.302       .  S
C118        O120   1.269       .  A
C118        O132   1.275       .  A
C118       C2421   1.489       .  S
O119        C147   1.267       .  A
O119       Mg121   2.294       .  S
O120       Mg152   2.243       .  S
Mg121       O127   2.144       .  S
Mg121       O135   2.251       .  S
Mg121       O123   2.260       .  S
C122        O160   1.272       .  A
C122       O1406   1.274       .  A
C122        C975   1.488       .  S
O123        C130   1.268       .  A
H124        C137   1.081       .  S
C125        O139   1.236       .  S
C125        O140   1.270       .  A
C125        H150   1.081       .  S
O126        C149   1.269       .  A
O127       Mg141   2.151       .  S
O128       C1400   1.276       .  A
O128       Mg158   2.289       .  S
C129        O142   1.275       .  A
C129        O134   1.269       .  A
C129       C1000   1.497       .  S
C130        O157   1.268       .  A
C130       C1014   1.482       .  S
Mg131       O138   2.144       .  S
Mg131       O139   2.176       .  S
Mg131       O132   2.315       .  S
Mg131       O133   2.297       .  S
Mg131      O1438   2.259       .  S
O133        C137   1.268       .  A
O134       Mg141   2.288       .  S
O135        C154   1.270       .  A
O136        C156   1.272       .  A
O136       Mg152   2.279       .  S
O138       Mg152   2.151       .  S
O138        C149   1.234       .  S
O139       Mg158   2.162       .  S
O140       Mg152   2.299       .  S
Mg141       O157   2.248       .  S
O142       Mg158   2.307       .  S
H143        C148   1.081       .  S
O144       Mg152   2.134       .  S
O144        C147   1.233       .  S
H145        C147   1.081       .  S
H146        C149   1.081       .  S
O151       Mg158   2.314       .  S
C154        O159   1.272       .  A
C154        C986   1.489       .  S
O155        C156   1.271       .  A
C156       C1031   1.488       .  S
O160      Mg1409   2.264   1_545  S
C161       C1028   1.475       .  S
C161        C162   1.410       .  A
C161        C166   1.392       .  A
C162       C1101   1.491       .  S
C162        C163   1.414       .  A
C163        H168   1.083       .  S
C163        C164   1.416       .  A
C164        C947   1.503       .  S
C164        C165   1.418       .  A
C165        C958   1.476       .  S
C165        C166   1.397       .  A
C166        H167   1.085       .  S
O169       Mg171   2.154   1_554  S
O169      Mg1455   2.156   1_545  S
O169        C204   1.235       .  S
C170        O183   1.234       .  S
C170        O207   1.269       .  A
C170        H209   1.081       .  S
Mg171      O1478   2.156   1_545  S
Mg171       O182   2.302       .  S
Mg171      O1493   2.288   1_545  S
Mg171      O1489   2.276   1_545  S
O172       Mg197   2.141       .  S
O172      Mg1492   2.159   1_545  S
O172        C193   1.235       .  S
O173        C204   1.270       .  A
O173       Mg197   2.305       .  S
C174        O176   1.270       .  A
C174        O188   1.273       .  A
C174        C930   1.480       .  S
O175        C203   1.270   1_554  A
O175       Mg177   2.304       .  S
O176       Mg208   2.258       .  S
Mg177       O183   2.165       .  S
Mg177      O1447   2.152       .  S
Mg177       O191   2.280       .  S
Mg177      O1457   2.292       .  S
C178        O216   1.271       .  A
C178        O184   1.273   1_566  A
C178        C891   1.489       .  S
O179        C186   1.275       .  A
O179      Mg1455   2.299   1_545  S
H180        C193   1.081       .  S
C181        O195   1.234       .  S
C181        O196   1.269       .  A
C181        H206   1.081   1_556  S
O182        C205   1.269       .  A
O183      Mg1475   2.162       .  S
O184      Mg1492   2.282   1_545  S
C185        O198   1.272       .  A
C185        O190   1.275       .  A
C185       C1129   1.497       .  S
C186        O213   1.270       .  A
C186       C1171   1.486       .  S
Mg187       O194   2.157       .  S
Mg187      O1473   2.156       .  S
Mg187       O189   2.299   1_565  S
Mg187       O216   2.274       .  S
Mg187      O1466   2.281       .  S
O188      Mg1465   2.286       .  S
O189        C193   1.269   1_556  A
O190       Mg197   2.312       .  S
O191        C210   1.272       .  A
O192        C212   1.274       .  A
O192       Mg208   2.304       .  S
O194      Mg1486   2.158       .  S
O194        C205   1.234   1_565  S
O195       Mg214   2.154   1_556  S
O195      Mg1465   2.160       .  S
O196       Mg208   2.301       .  S
Mg197      O1461   2.163   1_545  S
Mg197       O213   2.246       .  S
O198      Mg1492   2.276   1_545  S
H199        C204   1.081   1_556  S
O200       Mg208   2.145       .  S
O200      Mg1449   2.153       .  S
O200        C203   1.235       .  S
H201        C203   1.081       .  S
H202        C205   1.081       .  S
O207       Mg214   2.302       .  S
Mg208      O1472   2.169       .  S
C210        O215   1.273   1_554  A
C210        C902   1.491       .  S
O211        C212   1.271       .  A
O211      Mg1449   2.265       .  S
C212        C919   1.491       .  S
Mg214      O1450   2.156       .  S
Mg214      O1462   2.287       .  S
Mg214      O1476   2.274       .  S
O215      Mg1449   2.286       .  S
O217       Mg219   2.122   1_556  S
O217       Mg225   2.157       .  S
O217        C252   1.233       .  S
C218        O231   1.235       .  S
C218        O255   1.271       .  A
C218        H257   1.081       .  S
Mg219       O248   2.157       .  S
Mg219       O263   2.287       .  S
Mg219       O259   2.247       .  S
Mg219       O230   2.297       .  S
O220       Mg262   2.151       .  S
O220       Mg245   2.146       .  S
O220        C241   1.234       .  S
O221        C252   1.266       .  A
O221       Mg245   2.286       .  S
C222        O224   1.267       .  A
C222        O236   1.275       .  A
C222       C1157   1.484       .  S
O223        C251   1.267   1_556  A
O223       Mg225   2.292       .  S
O224       Mg256   2.236       .  S
Mg225       O231   2.147       .  S
Mg225       O239   2.272       .  S
Mg225       O227   2.297       .  S
C226        O264   1.272       .  A
C226        O232   1.274   1_554  A
C226        C835   1.488       .  S
O227        C234   1.275       .  A
H228        C241   1.081       .  S
C229        O243   1.235       .  S
C229        O244   1.269       .  A
C229        H254   1.081   1_554  S
O230        C253   1.270       .  A
O231       Mg245   2.159       .  S
O232       Mg262   2.290       .  S
C233        O246   1.268       .  A
C233        O238   1.269       .  A
C233        C877   1.485       .  S
C234        O261   1.267       .  A
C234        C863   1.488       .  S
Mg235       O242   2.144       .  S
Mg235       O243   2.155       .  S
Mg235       O236   2.301       .  S
Mg235       O237   2.302       .  S
Mg235       O264   2.266       .  S
O237        C241   1.269   1_554  A
O238       Mg245   2.258       .  S
O239        C258   1.274       .  A
O240        C260   1.269       .  A
O240       Mg256   2.274       .  S
O242       Mg256   2.155       .  S
O242        C253   1.236       .  S
O243       Mg262   2.134   1_554  S
O244       Mg256   2.296       .  S
Mg245       O261   2.237       .  S
O246       Mg262   2.255       .  S
H247        C252   1.081   1_554  S
O248       Mg256   2.135       .  S
O248        C251   1.233       .  S
H249        C251   1.081       .  S
H250        C253   1.081       .  S
O255       Mg262   2.305       .  S
C258        O263   1.273   1_556  A
C258        C846   1.490       .  S
O259        C260   1.270       .  A
C260        C961   1.481       .  S
O265       Mg267   2.163   1_556  S
O265      Mg2829   2.161   1_455  S
O265        C300   1.233       .  S
C266        O279   1.235       .  S
C266        O303   1.269       .  A
C266        H305   1.081       .  S
Mg267      O2852   2.164   1_455  S
Mg267       O278   2.299       .  S
Mg267      O2867   2.300   1_455  S
Mg267      O2863   2.271   1_455  S
O268       Mg293   2.165       .  S
O268      Mg2866   2.161   1_455  S
O268        C289   1.236       .  S
O269        C300   1.268       .  A
O269       Mg293   2.298       .  S
C270        O272   1.279       .  A
C270        O284   1.277       .  A
C270        C944   1.499       .  S
O271        C299   1.272   1_556  A
O271       Mg273   2.312       .  S
O272       Mg304   2.321       .  S
Mg273       O279   2.140       .  S
Mg273      O2821   2.162       .  S
Mg273       O287   2.261       .  S
Mg273      O2831   2.318       .  S
C274        O312   1.273       .  A
C274        O280   1.272   1_554  A
C274        C790   1.495       .  S
O275        C282   1.279       .  A
O275      Mg2829   2.326   1_455  S
H276        C289   1.081       .  S
C277        O291   1.233       .  S
C277        O292   1.268       .  A
C277        H302   1.081   1_554  S
O278        C301   1.270       .  A
O279      Mg2849   2.167       .  S
O280      Mg2866   2.285   1_455  S
C281        O294   1.271       .  A
C281        O286   1.278       .  A
C281        C807   1.493       .  S
C282        O309   1.277       .  A
C282        C821   1.502       .  S
Mg283       O290   2.155       .  S
Mg283      O2847   2.158   1_455  S
Mg283       O285   2.307       .  S
Mg283       O312   2.285       .  S
Mg283      O2840   2.302   1_455  S
O284      Mg2839   2.317       .  S
O285        C289   1.271   1_554  A
O286       Mg293   2.320       .  S
O287        C306   1.270       .  A
O288        C308   1.279       .  A
O288       Mg304   2.329       .  S
O290      Mg2860   2.172   1_455  S
O290        C301   1.235       .  S
O291       Mg310   2.167   1_554  S
O291      Mg2839   2.164       .  S
O292       Mg304   2.299       .  S
Mg293      O2835   2.173   1_455  S
Mg293       O309   2.304       .  S
O294      Mg2866   2.275   1_455  S
H295        C300   1.081       .  S
O296       Mg304   2.177       .  S
O296      Mg2823   2.164       .  S
O296        C299   1.236       .  S
H297        C299   1.081       .  S
H298        C301   1.081       .  S
O303       Mg310   2.293       .  S
Mg304      O2846   2.175       .  S
C306        O311   1.274   1_556  A
C306        C779   1.491       .  S
O307        C308   1.271       .  A
O307      Mg2823   2.261       .  S
C308       C1112   1.493       .  S
Mg310      O2824   2.163       .  S
Mg310      O2836   2.289       .  S
Mg310      O2850   2.276       .  S
O311      Mg2823   2.296       .  S
O313       Mg315   2.146       .  S
O313       Mg321   2.159       .  S
O313        C348   1.235       .  S
C314        O327   1.235       .  S
C314        O351   1.270       .  A
C314        H353   1.081       .  S
Mg315       O344   2.146       .  S
Mg315       O359   2.288   1_545  S
Mg315       O355   2.268       .  S
Mg315       O326   2.305       .  S
O316       Mg358   2.151       .  S
O316       Mg341   2.140       .  S
O316        C337   1.234       .  S
O317        C348   1.269       .  A
O317       Mg341   2.294       .  S
C318        O320   1.272       .  A
C318        O332   1.273       .  A
C318        C762   1.483       .  S
O319        C347   1.270       .  A
O319       Mg321   2.309       .  S
O320       Mg352   2.263       .  S
Mg321       O327   2.141       .  S
Mg321       O323   2.315       .  S
Mg321      O1613   2.264   1_545  S
C322        O360   1.272       .  A
C322        O328   1.276       .  A
C322        C692   1.497       .  S
O323        C330   1.276       .  A
H324        C337   1.081       .  S
C325        O339   1.234       .  S
C325        O340   1.268       .  A
C325        H350   1.081       .  S
O326        C349   1.271       .  A
O327       Mg341   2.156       .  S
O328       Mg358   2.297       .  S
C329        O342   1.272       .  A
C329        O334   1.271       .  A
C329        C734   1.488       .  S
C330        O357   1.269       .  A
C330       C2001   1.491   1_545  S
Mg331       O338   2.155       .  S
Mg331       O339   2.162       .  S
Mg331       O332   2.289       .  S
Mg331       O333   2.293       .  S
Mg331       O360   2.274       .  S
O333        C337   1.267       .  A
O334       Mg341   2.272       .  S
O335        C354   1.273       .  A
O335      Mg1599   2.274       .  S
O336        C356   1.274       .  A
O336       Mg352   2.300       .  S
O338       Mg352   2.163       .  S
O338        C349   1.236       .  S
O339       Mg358   2.145       .  S
O340       Mg352   2.297       .  S
Mg341       O357   2.249       .  S
O342       Mg358   2.275       .  S
H343        C348   1.081   1_565  S
O344       Mg352   2.152       .  S
O344        C347   1.235       .  S
H345        C347   1.081       .  S
H346        C349   1.081       .  S
O351       Mg358   2.300       .  S
C354       O1637   1.273       .  A
C354        C709   1.484       .  S
O355        C356   1.269       .  A
C356        C748   1.497       .  S
O359       C1632   1.274       .  A
C361        C818   1.498       .  S
C361        C362   1.411       .  A
C361        C366   1.411       .  A
C362        C874   1.471       .  S
C362        C363   1.396       .  A
C363        H368   1.085       .  S
C363        C364   1.393       .  A
C364        C737   1.480       .  S
C364        C365   1.419       .  A
C365        C678   1.495       .  S
C365        C366   1.416       .  A
C366        H367   1.083       .  S
C369        C916   1.488       .  S
C369        C370   1.423       .  A
C369        C374   1.406       .  A
C370        C804   1.495       .  S
C370        C371   1.410       .  A
C371        H376   1.084       .  S
C371        C372   1.405       .  A
C372        C664   1.485       .  S
C372        C373   1.411       .  A
C373        C720   1.485       .  S
C373        C374   1.398       .  A
C374        H375   1.084       .  S
O377       Mg379   2.152       .  S
O377       Mg385   2.148       .  S
O377        C412   1.233       .  S
C378        O391   1.235       .  S
C378        O415   1.269       .  A
C378        H417   1.081       .  S
Mg379       O408   2.159       .  S
Mg379       O423   2.288       .  S
Mg379       O419   2.259       .  S
Mg379       O390   2.295       .  S
O380       Mg422   2.167       .  S
O380       Mg405   2.169       .  S
O380        C401   1.236       .  S
O381        C412   1.268       .  A
O381       Mg405   2.299       .  S
C382        O384   1.273       .  A
C382        O396   1.275       .  A
C382        C639   1.486       .  S
O383        C411   1.271       .  A
O383       Mg385   2.307       .  S
O384       Mg416   2.280       .  S
Mg385       O391   2.158       .  S
Mg385       O387   2.302       .  S
Mg385      O2955   2.289       .  S
C386        O424   1.271       .  A
C386        O392   1.275       .  A
C386        C594   1.496       .  S
O387        C394   1.275       .  A
H388        C401   1.081       .  S
C389        O403   1.235       .  S
C389        O404   1.270       .  A
C389        H414   1.081       .  S
O390        C413   1.269       .  A
O391       Mg405   2.169       .  S
O392      Mg1700   2.313       .  S
C393        O406   1.273       .  A
C393        O398   1.275       .  A
C393       C1903   1.490   1_545  S
C394        O421   1.276       .  A
C394       C3237   1.495       .  S
Mg395       O402   2.149       .  S
Mg395       O403   2.151       .  S
Mg395       O396   2.295       .  S
Mg395       O397   2.307       .  S
Mg395      O1702   2.273   1_545  S
O397        C401   1.271       .  A
O398       Mg405   2.304       .  S
O399        C418   1.273       .  A
O399      Mg2941   2.279   1_455  S
O400        C420   1.277       .  A
O400       Mg416   2.317       .  S
O402       Mg416   2.163       .  S
O402        C413   1.235       .  S
O403       Mg422   2.157       .  S
O404       Mg416   2.306       .  S
Mg405       O421   2.296       .  S
O406       Mg422   2.271       .  S
H407        C412   1.081       .  S
O408       Mg416   2.153       .  S
O408        C411   1.236       .  S
H409        C411   1.081       .  S
H410        C413   1.081       .  S
O415       Mg422   2.301       .  S
C418       O2979   1.273       .  A
C418        C608   1.490       .  S
O419        C420   1.269       .  A
C420        C653   1.494       .  S
Mg422      O1670   2.310   1_545  S
O423       C2974   1.273       .  A
O424      Mg1673   2.262       .  S
O425       Mg427   2.143       .  S
O425       Mg433   2.154       .  S
O425        C460   1.234       .  S
C426        O439   1.235       .  S
C426        O463   1.269       .  A
C426        H465   1.081       .  S
Mg427       O456   2.158       .  S
Mg427       O471   2.302       .  S
Mg427       O467   2.265       .  S
Mg427       O438   2.303       .  S
O428       Mg470   2.154       .  S
O428       Mg453   2.138       .  S
O428        C449   1.235       .  S
O429        C460   1.269       .  A
O429       Mg453   2.301       .  S
C430        O432   1.270       .  A
C430        O444   1.275       .  A
C430       C3223   1.488       .  S
O431        C459   1.269       .  A
O431       Mg433   2.301       .  S
O432       Mg464   2.251       .  S
Mg433       O439   2.150       .  S
Mg433       O447   2.264       .  S
Mg433       O435   2.281       .  S
C434        O472   1.273       .  A
C434       O2996   1.270       .  A
C434        C524   1.490       .  S
O435        C442   1.272       .  A
H436        C449   1.081       .  S
C437        O451   1.234       .  S
C437        O452   1.269       .  A
C437        H462   1.081       .  S
O438        C461   1.269       .  A
O439       Mg453   2.160       .  S
O440       C2990   1.271       .  A
O440       Mg470   2.281       .  S
C441        O454   1.270       .  A
C441        O446   1.273       .  A
C441        C580   1.487       .  S
C442        O469   1.269       .  A
C442        C569   1.477       .  S
Mg443       O450   2.168       .  S
Mg443       O451   2.149       .  S
Mg443       O444   2.296       .  S
Mg443       O445   2.304       .  S
Mg443      O3028   2.286       .  S
O445        C449   1.270       .  A
O446       Mg453   2.286       .  S
O447        C466   1.271       .  A
O448        C468   1.275       .  A
O448       Mg464   2.313       .  S
O450       Mg464   2.165       .  S
O450        C461   1.234       .  S
O451       Mg470   2.148       .  S
O452       Mg464   2.303       .  S
Mg453       O469   2.245       .  S
O454       Mg470   2.265       .  S
H455        C460   1.081       .  S
O456       Mg464   2.151       .  S
O456        C459   1.235       .  S
H457        C459   1.081       .  S
H458        C461   1.081       .  S
O463       Mg470   2.298       .  S
C466        O471   1.275       .  A
C466        C541   1.492       .  S
O467        C468   1.271       .  A
C468        C555   1.497       .  S
O472      Mg2999   2.282   1_455  S
C473        C860   1.474       .  S
C473        C474   1.408       .  A
C473        C478   1.399       .  A
C474        C933   1.479       .  S
C474        C475   1.397       .  A
C475        H480   1.085       .  S
C475        C476   1.403       .  A
C476        C622   1.478       .  S
C476        C477   1.418       .  A
C477        C552   1.485       .  S
C477        C478   1.403       .  A
C478        H479   1.084       .  S
C481       C1227   1.481       .  S
C481        C482   1.415       .  A
C481        C486   1.401   1_455  A
C482       C1073   1.483       .  S
C482        C483   1.402       .  A
C483        H488   1.085       .  S
C483       C3040   1.400   1_455  A
C484        C583   1.479       .  S
C484        C485   1.415       .  A
C484       C3039   1.401       .  A
C485        C650   1.487       .  S
C485       C3042   1.401       .  A
C486        H487   1.085       .  S
C486       C3041   1.403       .  A
C489       C1241   1.478       .  S
C489        C490   1.408       .  A
C489        C494   1.398       .  A
C490       C1017   1.474       .  S
C490        C491   1.399       .  A
C491        H496   1.084       .  S
C491        C492   1.403       .  A
C492        C566   1.482       .  S
C492        C493   1.416       .  A
C493        C765   1.480       .  S
C493        C494   1.399       .  A
C494        H495   1.084       .  S
C497       C1087   1.480       .  S
C497        C498   1.413       .  A
C497        C502   1.404       .  A
C498       C1003   1.487       .  S
C498        C499   1.403       .  A
C499        H504   1.084       .  S
C499       C1778   1.406       .  A
C500        C636   1.481       .  S
C500        C501   1.411       .  A
C500       C1777   1.405       .  A
C501        C751   1.483       .  S
C501       C1780   1.402   1_545  A
C502        H503   1.084       .  S
C502       C1779   1.399       .  A
C505        C793   1.492       .  S
C505        C506   1.411       .  A
C505       C3066   1.415   1_454  A
C506        C905   1.488       .  S
C506       C1785   1.414       .  A
C507        C832   1.480   1_556  S
C507        C508   1.416   1_455  A
C507       C1784   1.414   1_556  A
C508       C3332   1.493       .  S
C508       C4343   1.413   1_545  A
C509       C2166   1.490       .  S
C509        C510   1.416       .  A
C509       C4342   1.414       .  A
C510        C849   1.486       .  S
C510       C3061   1.414   1_556  A
C511       C1213   1.490       .  S
C511        C512   1.417       .  A
C511        C516   1.412       .  A
C512        C972   1.481       .  S
C512        C513   1.414       .  A
C513       C1045   1.497       .  S
C513        C514   1.412       .  A
C514       C1199   1.488       .  S
C514        C515   1.417       .  A
C515        C989   1.480       .  S
C515        C516   1.415       .  A
C516       C1056   1.498       .  S
C517        C538   1.482       .  S
C517        C518   1.414       .  A
C517        C522   1.415       .  A
C518        C597   1.496       .  S
C518        C519   1.413       .  A
C519        C706   1.483       .  S
C519        C520   1.414       .  A
C520        C527   1.485       .  S
C520        C521   1.411       .  A
C521        C611   1.490       .  S
C521        C522   1.413       .  A
C522        C695   1.488       .  S
C523        H530   1.083       .  S
C523        C524   1.408       .  A
C523        C528   1.405       .  A
C524        C525   1.417       .  A
C525        C526   1.395       .  A
C525        N532   1.433       .  S
C526        H531   1.083       .  S
C526        C527   1.396       .  A
C527        C528   1.416       .  A
C528        N529   1.438       .  S
N529        H533   1.045       .  S
N529        H534   1.043       .  S
N532        H535   1.046       .  S
N532        H536   1.046       .  S
C537        H544   1.085       .  S
C537        C538   1.393       .  A
C537        C542   1.396       .  A
C538        C539   1.415       .  A
C539        C540   1.406       .  A
C539        N546   1.437       .  S
C540        H545   1.083       .  S
C540        C541   1.409       .  A
C541        C542   1.415       .  A
C542        N543   1.428       .  S
N543        H547   1.046       .  S
N543        H548   1.045       .  S
N546        H549   1.043       .  S
N546        H550   1.046       .  S
C551        H558   1.083       .  S
C551        C552   1.396       .  A
C551        C556   1.396       .  A
C552        C553   1.410       .  A
C553        C554   1.410       .  A
C553        N560   1.437       .  S
C554        H559   1.083       .  S
C554        C555   1.409       .  A
C555        C556   1.422       .  A
C556        N557   1.427       .  S
N557        H561   1.044       .  S
N557        H562   1.046       .  S
N560        H563   1.046       .  S
N560        H564   1.046       .  S
C565        H572   1.083       .  S
C565        C566   1.402       .  A
C565        C570   1.397       .  A
C566        C567   1.410       .  A
C567        C568   1.405       .  A
C567        N574   1.438       .  S
C568        H573   1.084       .  S
C568        C569   1.407       .  A
C569        C570   1.409       .  A
C570        N571   1.433       .  S
N571        H575   1.046       .  S
N571        H576   1.046       .  S
N574        H577   1.044       .  S
N574        H578   1.046       .  S
C579        H586   1.084       .  S
C579        C580   1.408       .  A
C579        C584   1.399       .  A
C580        C581   1.416       .  A
C581        C582   1.409       .  A
C581       N3144   1.437       .  S
C582       H3143   1.084       .  S
C582        C583   1.403       .  A
C583        C584   1.403       .  A
C584        N585   1.433       .  S
N585        H589   1.046       .  S
N585        H590   1.045       .  S
H587       C3138   1.084       .  S
N588       C3137   1.437       .  S
N588        H591   1.045       .  S
N588        H592   1.046       .  S
C593        H600   1.084       .  S
C593        C594   1.409       .  A
C593        C598   1.403       .  A
C594        C595   1.415       .  A
C595        C596   1.404       .  A
C595        N602   1.432       .  S
C596        H601   1.084       .  S
C596        C597   1.402       .  A
C597        C598   1.416       .  A
C598        N599   1.437       .  S
N599        H603   1.045       .  S
N599        H604   1.041       .  S
N602        H605   1.046       .  S
N602        H606   1.046       .  S
C607        H614   1.083       .  S
C607        C608   1.409       .  A
C607        C612   1.399       .  A
C608        C609   1.412       .  A
C609        C610   1.404       .  A
C609        N616   1.432       .  S
C610        H615   1.083       .  S
C610        C611   1.403       .  A
C611        C612   1.413       .  A
C612        N613   1.439       .  S
N613        H617   1.046       .  S
N613        H618   1.043       .  S
N616        H619   1.046       .  S
N616        H620   1.046       .  S
C621        H628   1.084       .  S
C621        C622   1.398       .  A
C621        C626   1.397       .  A
C622        C623   1.409       .  A
C623        C624   1.405       .  A
C623        N630   1.438       .  S
C624        H629   1.084       .  S
C624        C625   1.407       .  A
C625       C1671   1.485       .  S
C625        C626   1.422       .  A
C626       N1905   1.433       .  S
N627       C1904   1.433       .  S
N627        H632   1.046       .  S
N627       H1909   1.045   1_565  S
N630        H633   1.045       .  S
N630        H634   1.045       .  S
H631       N1905   1.045       .  S
C635        H642   1.083       .  S
C635        C636   1.404       .  A
C635        C640   1.405       .  A
C636        C637   1.406       .  A
C637        C638   1.400       .  A
C637       N1922   1.438   1_545  S
C638        H643   1.084       .  S
C638        C639   1.407       .  A
C639        C640   1.417       .  A
C640        N641   1.432       .  S
N641        H645   1.044       .  S
N641        H646   1.046       .  S
N644       C1915   1.438       .  S
N644        H647   1.042       .  S
N644        H648   1.046       .  S
C649        H656   1.084       .  S
C649        C650   1.401       .  A
C649        C654   1.401       .  A
C650        C651   1.407       .  A
C651        C652   1.403       .  A
C651        N658   1.432       .  S
C652        H657   1.084       .  S
C652        C653   1.408       .  A
C653        C654   1.425       .  A
C654        N655   1.433       .  S
N655        H659   1.045       .  S
N655        H660   1.045       .  S
N658        H661   1.045       .  S
N658        H662   1.046       .  S
C663        H670   1.084       .  S
C663        C664   1.401       .  A
C663        C668   1.408       .  A
C664        C665   1.407       .  A
C665        C666   1.405       .  A
C665        N672   1.438       .  S
C666        H671   1.083       .  S
C666        C667   1.409       .  A
C667       C2986   1.494   1_455  S
C667        C668   1.418       .  A
C668        N669   1.438   1_455  S
N669        H673   1.046       .  S
N669        H674   1.046       .  S
N672        H675   1.043       .  S
N672        H676   1.046       .  S
C677        H684   1.082       .  S
C677        C678   1.404       .  A
C677        C682   1.407       .  A
C678        C679   1.413       .  A
C679       C3236   1.410       .  A
C679       N3242   1.438       .  S
C680        H685   1.083       .  S
C680       C3235   1.411       .  A
C680       C3237   1.408       .  A
C681       C2950   1.493   1_455  S
C681        C682   1.416       .  A
C681       C3236   1.407       .  A
C682        N683   1.438       .  S
N683        H687   1.046       .  S
N683        H688   1.046       .  S
N686       C3235   1.438       .  S
N686        H690   1.046       .  S
N686       H3245   1.044       .  S
H689       N3242   1.044       .  S
C691        H698   1.084       .  S
C691        C692   1.411       .  A
C691        C696   1.401       .  A
C692        C693   1.422       .  A
C693        C694   1.400       .  A
C693        N700   1.432       .  S
C694        H699   1.083       .  S
C694        C695   1.400       .  A
C695        C696   1.414       .  A
C696        N697   1.439       .  S
N697        H701   1.046       .  S
N697        H702   1.043       .  S
N700        H703   1.045       .  S
N700        H704   1.045       .  S
C705        H712   1.084       .  S
C705        C706   1.403       .  A
C705        C710   1.407       .  A
C706        C707   1.413       .  A
C707        C708   1.396       .  A
C707        N714   1.439       .  S
C708        H713   1.084       .  S
C708        C709   1.407       .  A
C709        C710   1.412       .  A
C710        N711   1.437       .  S
N711        H715   1.046       .  S
N711        H716   1.046       .  S
N714        H717   1.042       .  S
N714        H718   1.046       .  S
C719        H726   1.083       .  S
C719        C720   1.399       .  A
C719       C2002   1.402       .  A
C720        C721   1.410       .  A
C721        C722   1.408       .  A
C721        N728   1.438       .  S
C722        H727   1.083       .  S
C722        C723   1.407       .  A
C723       C1608   1.487       .  S
C723       C2002   1.417       .  A
C724       C1997   1.406       .  A
C724       C2001   1.418       .  A
C724        N725   1.438   1_565  S
N725        H729   1.046       .  S
N725        H730   1.046   1_545  S
N728        H731   1.045       .  S
N728        H732   1.046       .  S
C733        H740   1.084       .  S
C733        C734   1.410       .  A
C733        C738   1.395       .  A
C734        C735   1.413       .  A
C735        C736   1.405       .  A
C735        N742   1.432       .  S
C736        H741   1.084       .  S
C736        C737   1.403       .  A
C737        C738   1.407       .  A
C738        N739   1.432       .  S
N739        H743   1.043       .  S
N739        H744   1.045       .  S
N742        H745   1.046       .  S
N742        H746   1.046       .  S
C747        H754   1.084       .  S
C747        C748   1.410       .  A
C747        C752   1.402       .  A
C748        C749   1.423   1_545  A
C749        C750   1.401       .  A
C749       N2034   1.432       .  S
C750       H2033   1.084       .  S
C750        C751   1.401   1_565  A
C751        C752   1.414       .  A
C752        N753   1.439       .  S
N753        H757   1.046       .  S
N753        H758   1.043       .  S
H755       C2028   1.083       .  S
N756       C2027   1.432       .  S
N756        H759   1.045       .  S
N756        H760   1.045       .  S
C761        H768   1.084       .  S
C761        C762   1.405       .  A
C761        C766   1.401       .  A
C762        C763   1.417       .  A
C763        C764   1.401       .  A
C763        N770   1.438       .  S
C764        H769   1.084       .  S
C764        C765   1.399       .  A
C765        C766   1.416       .  A
C766        N767   1.437       .  S
N767        H771   1.045       .  S
N767        H772   1.043       .  S
N770        H773   1.046       .  S
N770        H774   1.046       .  S
C775        H782   1.084       .  S
C775        C780   1.405       .  A
C775       C3332   1.402       .  A
C776       C3064   1.489       .  S
C776        C777   1.414   1_556  A
C776       C3331   1.402       .  A
C777        C778   1.400       .  A
C777        N784   1.439       .  S
C778        H783   1.084       .  S
C778        C779   1.409   1_554  A
C779       C3336   1.414       .  A
C780       C3335   1.415       .  A
C780        N781   1.432       .  S
N781        H785   1.046       .  S
N781        H786   1.046   1_655  S
N784        H787   1.042       .  S
N784        H788   1.046       .  S
C789        H796   1.083       .  S
C789        C794   1.404       .  A
C789       C3346   1.408       .  A
C790        C791   1.418   1_554  A
C790       C3345   1.408       .  A
C791        C792   1.400       .  A
C791        N798   1.433       .  S
C792        H797   1.084       .  S
C792        C793   1.397   1_556  A
C793       C3350   1.418       .  A
C794       C3349   1.417       .  A
C794        N795   1.438       .  S
N795        H799   1.045       .  S
N795        H800   1.044       .  S
N798        H801   1.046       .  S
N798        H802   1.045       .  S
C803        H810   1.084       .  S
C803        C804   1.406       .  A
C803        C808   1.406       .  A
C804        C805   1.411       .  A
C805        C806   1.407       .  A
C805        N812   1.437       .  S
C806        H811   1.084       .  S
C806        C807   1.407       .  A
C807        C808   1.418       .  A
C808       N3365   1.432   1_455  S
N809       C3364   1.432       .  S
N809        H813   1.044       .  S
N809        H814   1.046       .  S
N812        H815   1.046       .  S
N812        H816   1.045       .  S
C817        H824   1.084       .  S
C817        C818   1.406       .  A
C817        C822   1.413       .  A
C818        C819   1.412       .  A
C819        C820   1.405       .  A
C819        N826   1.433       .  S
C820        H825   1.084       .  S
C820        C821   1.411       .  A
C821        C822   1.417       .  A
C822        N823   1.437       .  S
N823        H827   1.046       .  S
N823        H828   1.046       .  S
N826        H829   1.044       .  S
N826       H3386   1.044       .  S
H830       N3382   1.044       .  S
C831        H838   1.084       .  S
C831        C832   1.400       .  A
C831        C836   1.404       .  A
C832        C833   1.403   1_554  A
C833        C834   1.399       .  A
C833        N840   1.432       .  S
C834        H839   1.083       .  S
C834        C835   1.410   1_556  A
C835        C836   1.415       .  A
C836        N837   1.432       .  S
N837        H841   1.046       .  S
N837        H842   1.046       .  S
N840        H843   1.045       .  S
N840        H844   1.045       .  S
C845        H852   1.083       .  S
C845        C846   1.408       .  A
C845        C850   1.404       .  A
C846        C847   1.418   1_556  A
C847        C848   1.400       .  A
C847        N854   1.433       .  S
C848        H853   1.083       .  S
C848        C849   1.399   1_554  A
C849        C850   1.405       .  A
C850        N851   1.432       .  S
N851        H855   1.046       .  S
N851        H856   1.045       .  S
N854        H857   1.046       .  S
N854        H858   1.046       .  S
C859        H866   1.084       .  S
C859        C860   1.396       .  A
C859        C864   1.404       .  A
C860        C861   1.405       .  A
C861        C862   1.402       .  A
C861        N868   1.437       .  S
C862        H867   1.083       .  S
C862        C863   1.408       .  A
C863        C864   1.422       .  A
C864        N865   1.438       .  S
N865        H869   1.045       .  S
N865        H870   1.046       .  S
N868        H871   1.046       .  S
N868        H872   1.045       .  S
C873        H880   1.083       .  S
C873        C874   1.400       .  A
C873        C878   1.395       .  A
C874        C875   1.410       .  A
C875        C876   1.396       .  A
C875        N882   1.440       .  S
C876        H881   1.083       .  S
C876        C877   1.411       .  A
C877        C878   1.419       .  A
C878        N879   1.433       .  S
N879        H883   1.045       .  S
N879        H884   1.045       .  S
N882        H885   1.043       .  S
N882        H886   1.046       .  S
C887        H894   1.083       .  S
C887        C888   1.403       .  A
C887        C892   1.408   1_565  A
C888       C1787   1.486       .  S
C888       C2167   1.412   1_556  A
C889        C890   1.399       .  A
C889       C2166   1.413   1_554  A
C889        N896   1.439       .  S
C890        H895   1.084       .  S
C890       C2169   1.409   1_554  A
C891        C892   1.415   1_565  A
C891       C2168   1.408   1_556  A
C892        N893   1.437       .  S
N893        H897   1.046       .  S
N893        H898   1.045       .  S
N896        H899   1.042       .  S
N896        H900   1.046       .  S
C901        H908   1.083       .  S
C901        C906   1.400   1_565  A
C901       C2180   1.410   1_556  A
C902        C903   1.414       .  A
C902       C2179   1.409   1_554  A
C903        C904   1.407       .  A
C903        N910   1.432       .  S
C904        H909   1.083       .  S
C904        C905   1.402       .  A
C905       C2184   1.403   1_554  A
C906       C2183   1.404   1_556  A
C906        N907   1.432       .  S
N907        H911   1.045   1_545  S
N907        H912   1.045       .  S
N910        H913   1.046       .  S
N910        H914   1.046       .  S
C915        H922   1.084       .  S
C915        C916   1.403       .  A
C915        C920   1.403       .  A
C916        C917   1.407       .  A
C917        C918   1.406       .  A
C917        N924   1.432       .  S
C918       H2201   1.084       .  S
C918        C919   1.410       .  A
C919        C920   1.414       .  A
C920        N921   1.433       .  S
N921        H925   1.046       .  S
N921        H926   1.046       .  S
H923       C2196   1.084       .  S
N924        H927   1.045       .  S
N924       H2206   1.046       .  S
H928       N2202   1.046       .  S
C929        H936   1.084       .  S
C929        C930   1.408       .  A
C929        C934   1.400       .  A
C930        C931   1.410       .  A
C931        C932   1.404       .  A
C931        N938   1.432       .  S
C932        H937   1.084       .  S
C932        C933   1.403       .  A
C933        C934   1.403       .  A
C934        N935   1.433       .  S
N935        H939   1.045       .  S
N935        H940   1.045       .  S
N938        H941   1.046       .  S
N938        H942   1.046       .  S
C943        H950   1.083       .  S
C943        C944   1.410       .  A
C943        C948   1.412       .  A
C944        C945   1.412       .  A
C945        C946   1.414       .  A
C945        N952   1.437       .  S
C946        H951   1.083       .  S
C946        C947   1.409       .  A
C947        C948   1.411       .  A
C948        N949   1.438       .  S
N949        H953   1.045       .  S
N949        H954   1.045       .  S
N952        H955   1.046       .  S
N952        H956   1.046       .  S
C957        H964   1.084       .  S
C957        C958   1.400       .  A
C957        C962   1.395       .  A
C958        C959   1.406       .  A
C959        C960   1.401       .  A
C959        N966   1.437       .  S
C960        H965   1.083       .  S
C960        C961   1.407       .  A
C961        C962   1.420       .  A
C962        N963   1.433       .  S
N963        H967   1.043       .  S
N963        H968   1.045       .  S
N966        H969   1.045       .  S
N966        H970   1.046       .  S
C971        H978   1.084       .  S
C971        C972   1.401       .  A
C971        C976   1.403       .  A
C972        C973   1.413       .  A
C973        C974   1.397       .  A
C973        N980   1.439       .  S
C974        H979   1.084       .  S
C974        C975   1.409       .  A
C975        C976   1.416       .  A
C976        N977   1.437       .  S
N977        H981   1.046       .  S
N977        H982   1.046       .  S
N980        H983   1.042       .  S
N980        H984   1.046       .  S
C985        H992   1.084       .  S
C985        C986   1.407       .  A
C985        C990   1.400       .  A
C986        C987   1.422       .  A
C987        C988   1.394       .  A
C987        N994   1.431       .  S
C988        H993   1.084       .  S
C988        C989   1.396       .  A
C989        C990   1.415       .  A
C990        N991   1.437       .  S
N991        H995   1.046       .  S
N991        H996   1.041       .  S
N994        H997   1.044       .  S
N994        H998   1.045       .  S
C999       H1006   1.084       .  S
C999       C1000   1.408       .  A
C999       C1004   1.408       .  A
C1000      C1001   1.425       .  A
C1001      C1002   1.397       .  A
C1001      N1008   1.433       .  S
C1002      H1007   1.085       .  S
C1002      C1003   1.398       .  A
C1003      C1004   1.418       .  A
C1004      N1005   1.438       .  S
N1005      H1009   1.045       .  S
N1005      H1010   1.043       .  S
N1008      H1011   1.045       .  S
N1008      H1012   1.045       .  S
C1013      H1020   1.083       .  S
C1013      C1014   1.407       .  A
C1013      C1018   1.399       .  A
C1014      C1015   1.418       .  A
C1015      C1016   1.399       .  A
C1015      N1022   1.439       .  S
C1016      H1021   1.084       .  S
C1016      C1017   1.399       .  A
C1017      C1018   1.413       .  A
C1018      N1019   1.439       .  S
N1019      H1023   1.046       .  S
N1019      H1024   1.043       .  S
N1022      H1025   1.046       .  S
N1022      H1026   1.046       .  S
C1027      H1034   1.083       .  S
C1027      C1028   1.399       .  A
C1027      C1032   1.403       .  A
C1028      C1029   1.401       .  A
C1029      C1030   1.399       .  A
C1029      N1036   1.432       .  S
C1030      H1035   1.083       .  S
C1030      C1031   1.410       .  A
C1031      C1032   1.415       .  A
C1032      N1033   1.431       .  S
N1033      H1037   1.046       .  S
N1033      H1038   1.046       .  S
N1036      H1039   1.045       .  S
N1036      H1040   1.046       .  S
C1041      H1048   1.083       .  S
C1041      C1042   1.408       .  A
C1041      C1046   1.403       .  A
C1042      C1043   1.415       .  A
C1043      C1044   1.407       .  A
C1043      N1050   1.432       .  S
C1044      H1049   1.082       .  S
C1044      C1045   1.403       .  A
C1045      C1046   1.406       .  A
C1046      N1047   1.432       .  S
N1047      H1051   1.045       .  S
N1047      H1052   1.046       .  S
N1050      H1053   1.045       .  S
N1050      H1054   1.046       .  S
C1055      H1062   1.084       .  S
C1055      C1056   1.405       .  A
C1055      C1060   1.408       .  A
C1056      C1057   1.415       .  A
C1057      C1058   1.401       .  A
C1057      N1064   1.437       .  S
C1058      H1063   1.083       .  S
C1058      C1059   1.409       .  A
C1059      C1060   1.415       .  A
C1060      N1061   1.432       .  S
N1061      H1065   1.046       .  S
N1061      H1066   1.046       .  S
N1064      H1067   1.041       .  S
N1064      H1068   1.046       .  S
C1069      H1076   1.083       .  S
C1069      C1070   1.408       .  A
C1069      C1074   1.404       .  A
C1070      C1071   1.419       .  A
C1071      C1072   1.405   1_455  A
C1071      N1078   1.433   1_455  S
C1072      H1077   1.084       .  S
C1072      C1073   1.400   1_655  A
C1073      C1074   1.407       .  A
C1074      N1075   1.432       .  S
N1075      H1079   1.045       .  S
N1075      H1080   1.046       .  S
N1078      H1081   1.046       .  S
N1078      H1082   1.046       .  S
C1083      H1090   1.084       .  S
C1083      C1084   1.408       .  A
C1083      C1088   1.401       .  A
C1084      C1085   1.419       .  A
C1085      C1086   1.404       .  A
C1085      N1092   1.438       .  S
C1086      H1091   1.084       .  S
C1086      C1087   1.399       .  A
C1087      C1088   1.414       .  A
C1088      N1089   1.439       .  S
N1089      H1093   1.046       .  S
N1089      H1094   1.043       .  S
N1092      H1095   1.046       .  S
N1092      H1096   1.046       .  S
C1097      H1104   1.084       .  S
C1097      C1098   1.411       .  A
C1097      C1102   1.401       .  A
C1098      C2626   1.498       .  S
C1098      C1099   1.416       .  A
C1099      C1100   1.412       .  A
C1099      N1106   1.437       .  S
C1100      H1105   1.083       .  S
C1100      C1101   1.405       .  A
C1101      C1102   1.409       .  A
C1102      N1103   1.432       .  S
N1103      H1107   1.045       .  S
N1103      H1108   1.045       .  S
N1106      H1109   1.046       .  S
N1106      H1110   1.046       .  S
C1111      H1118   1.083       .  S
C1111      C1112   1.408       .  A
C1111      C1116   1.406       .  A
C1112      C1113   1.416       .  A
C1113      C1114   1.408       .  A
C1113      N1120   1.432       .  S
C1114      H1119   1.084       .  S
C1114      C1115   1.403       .  A
C1115      C1116   1.406       .  A
C1116      N1117   1.432       .  S
N1117      H1122   1.046       .  S
N1117      H3677   1.045       .  S
N1120      H1123   1.046       .  S
N1120      H1124   1.046       .  S
H1121      N3673   1.045       .  S
C1125      H1132   1.084       .  S
C1125      C1126   1.403       .  A
C1125      C1130   1.407       .  A
C1126      C1127   1.417       .  A
C1127      C1128   1.406       .  A
C1127      N1134   1.438       .  S
C1128      H1133   1.084       .  S
C1128      C1129   1.410       .  A
C1129      C1130   1.417       .  A
C1130      N1131   1.438       .  S
N1131      H1135   1.046       .  S
N1131      H1136   1.046       .  S
N1134      H1137   1.043       .  S
N1134      H1138   1.046       .  S
C1139      H1146   1.084       .  S
C1139      C1140   1.400       .  A
C1139      C1144   1.400       .  A
C1140      C1141   1.404       .  A
C1141      C1142   1.404       .  A
C1141      N1148   1.437       .  S
C1142      H1147   1.083   1_545  S
C1142      C1143   1.411       .  A
C1143      C1396   1.493   1_545  S
C1143      C1144   1.423       .  A
C1144      N2423   1.432       .  S
N1145      C2422   1.432       .  S
N1145      H1150   1.046       .  S
N1145      H2427   1.045       .  S
N1148      H1151   1.046       .  S
N1148      H1152   1.046   1_545  S
H1149      N2423   1.045       .  S
C1153      H1160   1.084       .  S
C1153      C1154   1.400       .  A
C1153      C1158   1.397       .  A
C1154      C1155   1.402       .  A
C1155      C1156   1.400       .  A
C1155      N1162   1.432       .  S
C1156      H1161   1.084       .  S
C1156      C1157   1.409       .  A
C1157      C1158   1.420       .  A
C1158      N1159   1.433       .  S
N1159      H1163   1.043       .  S
N1159      H1164   1.046       .  S
N1162      H1165   1.046       .  S
N1162      H1166   1.045       .  S
C1167      H1174   1.084       .  S
C1167      C1168   1.401       .  A
C1167      C1172   1.402       .  A
C1168      C1169   1.414       .  A
C1169      C1170   1.400       .  A
C1169      N1176   1.439       .  S
C1170      H1175   1.084       .  S
C1170      C1171   1.408       .  A
C1171      C1172   1.413       .  A
C1172      N1173   1.432       .  S
N1173      H1177   1.045       .  S
N1173      H1178   1.046       .  S
N1176      H1179   1.043       .  S
N1176      H1180   1.046       .  S
C1181      H1188   1.084       .  S
C1181      C1182   1.402       .  A
C1181      C1186   1.404       .  A
C1182      C1183   1.408       .  A
C1183      C2462   1.404       .  A
C1183      N1190   1.432       .  S
C1184      H1189   1.084       .  S
C1184      C2461   1.404       .  A
C1184      C2463   1.407       .  A
C1185      C1386   1.485   1_545  S
C1185      C1186   1.414       .  A
C1185      C2462   1.405       .  A
C1186      N1187   1.433       .  S
N1187      H1191   1.046   1_545  S
N1187      H1192   1.046       .  S
N1190      H1193   1.045       .  S
N1190      H2472   1.046       .  S
H1194      N2468   1.045       .  S
C1195      H1202   1.084       .  S
C1195      C1196   1.410       .  A
C1195      C1200   1.401       .  A
C1196      C1197   1.418       .  A
C1197      C1198   1.404       .  A
C1197      N1204   1.438       .  S
C1198      H1203   1.084       .  S
C1198      C1199   1.401       .  A
C1199      C1200   1.414       .  A
C1200      N1201   1.438       .  S
N1201      H1205   1.045       .  S
N1201      H1206   1.042       .  S
N1204      H1207   1.046       .  S
N1204      H1208   1.046       .  S
C1209      H1216   1.084       .  S
C1209      C1210   1.409       .  A
C1209      C1214   1.395       .  A
C1210      C1211   1.413       .  A
C1211      C1212   1.410       .  A
C1211      N1218   1.437       .  S
C1212      H1217   1.084       .  S
C1212      C1213   1.406       .  A
C1213      C1214   1.413       .  A
C1214      N1215   1.439       .  S
N1215      H1219   1.046       .  S
N1215      H1220   1.041       .  S
N1218      H1221   1.045       .  S
N1218      H1222   1.046       .  S
C1223      H1230   1.084       .  S
C1223      C1224   1.410       .  A
C1223      C1228   1.398       .  A
C1224      C1225   1.417   1_455  A
C1225      C3782   1.407       .  A
C1225      N3788   1.432       .  S
C1226      H1231   1.084       .  S
C1226      C3781   1.410       .  A
C1226      C3783   1.402       .  A
C1227      C1228   1.409       .  A
C1227      C3782   1.401   1_455  A
C1228      N1229   1.433       .  S
N1229      H1233   1.045       .  S
N1229      H1234   1.044       .  S
N1232      C3781   1.438       .  S
N1232      H1235   1.046       .  S
N1232      H1236   1.046       .  S
C1237      H1244   1.084       .  S
C1237      C1238   1.408       .  A
C1237      C1242   1.396       .  A
C1238      C1239   1.417       .  A
C1239      C1240   1.400       .  A
C1239      N1246   1.432       .  S
C1240      H1245   1.084       .  S
C1240      C1241   1.404       .  A
C1241      C1242   1.413       .  A
C1242      N1243   1.440       .  S
N1243      H1247   1.046       .  S
N1243      H1248   1.042       .  S
N1246      H1249   1.045       .  S
N1246      H1250   1.045       .  S
C1251      H1258   1.083       .  S
C1251      C3808   1.410   1_455  A
C1251      C3812   1.399   1_455  A
C1252      C2574   1.493       .  S
C1252      C1253   1.420       .  A
C1252      C3807   1.410       .  A
C1253      C1254   1.405       .  A
C1253      N1260   1.439       .  S
C1254      H1259   1.083       .  S
C1254      C1255   1.401       .  A
C1255      C1256   1.409       .  A
C1256      C3807   1.399       .  A
C1256      N3813   1.433       .  S
N1257      C3812   1.433   1_455  S
N1257      H1261   1.044       .  S
N1257      H3818   1.044   1_455  S
N1260      H1263   1.046       .  S
N1260      H1264   1.046       .  S
H1262      N3813   1.044       .  S
C1265      H1272   1.083       .  S
C1265      C1266   1.410       .  A
C1265      C1270   1.408       .  A
C1266      C1267   1.417       .  A
C1267      C1268   1.405       .  A
C1267      N1274   1.433       .  S
C1268      H1273   1.084       .  S
C1268      C1269   1.401       .  A
C1269      C1270   1.408       .  A
C1270      N1271   1.438       .  S
N1271      H1275   1.046       .  S
N1271      H1276   1.045       .  S
N1274      H1277   1.046       .  S
N1274      H1278   1.046       .  S
O1279     Mg1281   2.149       .  S
O1279     Mg1287   2.158       .  S
O1279      C1314   1.234       .  S
C1280      O1293   1.234       .  S
C1280      O1317   1.269       .  A
C1280      H1319   1.081       .  S
Mg1281     O1310   2.161       .  S
Mg1281     O1325   2.278   1_455  S
Mg1281     O1321   2.263       .  S
Mg1281     O1292   2.296       .  S
O1282     Mg1324   2.163       .  S
O1282     Mg1307   2.147       .  S
O1282      C1303   1.234       .  S
O1283      C1314   1.269       .  A
O1283     Mg1307   2.299       .  S
C1284      O1286   1.270       .  A
C1284      O1298   1.272       .  A
C1284      C2516   1.484       .  S
O1285      C1313   1.270       .  A
O1285     Mg1287   2.304       .  S
O1286     Mg1318   2.271       .  S
Mg1287     O1293   2.160       .  S
Mg1287     O3857   2.291   1_455  S
Mg1287     O1289   2.302       .  S
C1288      O1326   1.269       .  A
C1288      O1294   1.273       .  A
C1288      C2474   1.491       .  S
O1289      C1296   1.275       .  A
H1290      C1303   1.081       .  S
C1291      O1305   1.235       .  S
C1291      O1306   1.270       .  A
C1291      H1316   1.081       .  S
O1292      C1315   1.268       .  A
O1293     Mg1307   2.161       .  S
O1294     Mg1324   2.300       .  S
C1295      O1308   1.272       .  A
C1295      O1300   1.274       .  A
C1295      C2544   1.491       .  S
C1296      O1323   1.271       .  A
C1296      C5086   1.489   1_455  S
Mg1297     O1304   2.136       .  S
Mg1297     O1305   2.159       .  S
Mg1297     O1298   2.282       .  S
Mg1297     O1299   2.295       .  S
Mg1297     O1326   2.240       .  S
O1299      C1303   1.268       .  A
O1300     Mg1307   2.300       .  S
O1301      C1320   1.274       .  A
O1301     Mg3843   2.297       .  S
O1302      C1322   1.274       .  A
O1302     Mg1318   2.290       .  S
O1304     Mg1318   2.144       .  S
O1304      C1315   1.234       .  S
O1305     Mg1324   2.144       .  S
O1306     Mg1318   2.306       .  S
Mg1307     O1323   2.253       .  S
O1308     Mg1324   2.257       .  S
H1309      C1314   1.081       .  S
O1310     Mg1318   2.152       .  S
O1310      C1313   1.235       .  S
H1311      C1313   1.081       .  S
H1312      C1315   1.081       .  S
O1317     Mg1324   2.304       .  S
C1320      O3881   1.272       .  A
C1320      C2488   1.489       .  S
O1321      C1322   1.270       .  A
C1322      C2502   1.490       .  S
O1325      C3876   1.273       .  A
C1327      C2547   1.478       .  S
C1327      C1328   1.416       .  A
C1327      C1332   1.400       .  A
C1328      C2460   1.478       .  S
C1328      C1329   1.404       .  A
C1329      H1334   1.084       .  S
C1329      C1330   1.398       .  A
C1330      C2446   1.477       .  S
C1330      C1331   1.409       .  A
C1331      C2432   1.476       .  S
C1331      C1332   1.396       .  A
C1332      H1333   1.085       .  S
C1335      C2418   1.488       .  S
C1335      C1336   1.414       .  A
C1335      C1340   1.402       .  A
C1336      C2533   1.484       .  S
C1336      C1337   1.402       .  A
C1337      H1342   1.084       .  S
C1337      C1338   1.403       .  A
C1338      C2393   1.484       .  S
C1338      C1339   1.419       .  A
C1339      C2404   1.487       .  S
C1339      C1340   1.408       .  A
C1340      H1341   1.084       .  S
O1343     Mg1345   2.144       .  S
O1343     Mg1351   2.153       .  S
O1343      C1378   1.234       .  S
C1344      O1357   1.235       .  S
C1344      O1381   1.269       .  A
C1344      H1383   1.081       .  S
Mg1345     O1374   2.171       .  S
Mg1345     O1385   2.262       .  S
Mg1345     O1356   2.299       .  S
O1346     Mg1388   2.151       .  S
O1346     Mg1371   2.152       .  S
O1346      C1367   1.235       .  S
O1347      C1378   1.268       .  A
O1347     Mg1371   2.294       .  S
C1348      O1350   1.276       .  A
C1348      O1362   1.277       .  A
C1348      C4932   1.505   1_455  S
O1349      C1377   1.271       .  A
O1349     Mg1351   2.306       .  S
O1350     Mg1382   2.306       .  S
Mg1351     O1357   2.148       .  S
Mg1351     O1353   2.295       .  S
C1352      O1390   1.272       .  A
C1352      O3914   1.274       .  A
C1352      C2337   1.496       .  S
O1353      C1360   1.274       .  A
H1354      C1367   1.081       .  S
C1355      O1369   1.235       .  S
C1355      O1370   1.270       .  A
C1355      H1380   1.081   1_455  S
O1356      C1379   1.270       .  A
O1357     Mg1371   2.172       .  S
O1358      C3908   1.273       .  A
O1358     Mg1388   2.282   1_655  S
C1359      O1372   1.272       .  A
C1359      O1364   1.276       .  A
C1359      C2348   1.494       .  S
C1360      O1387   1.274       .  A
C1360      C2362   1.493       .  S
Mg1361     O1368   2.158       .  S
Mg1361     O1369   2.154       .  S
Mg1361     O1362   2.314       .  S
Mg1361     O1363   2.308       .  S
Mg1361     O3946   2.281   1_455  S
O1363      C1367   1.271       .  A
O1364     Mg1371   2.315       .  S
O1365      C1384   1.272       .  A
O1366      C1386   1.276       .  A
O1366     Mg1382   2.309       .  S
O1368     Mg1382   2.162       .  S
O1368      C1379   1.235       .  S
O1369     Mg1388   2.161       .  S
O1370     Mg1382   2.307       .  S
Mg1371     O1387   2.275       .  S
O1372     Mg1388   2.272       .  S
H1373      C1378   1.081       .  S
O1374     Mg1382   2.174       .  S
O1374      C1377   1.236       .  S
H1375      C1377   1.081       .  S
H1376      C1379   1.081       .  S
O1381     Mg1388   2.296       .  S
C1384      O1389   1.275       .  A
C1384      C2320   1.494       .  S
O1385      C1386   1.272       .  A
O1390     Mg3917   2.284       .  S
O1391     Mg1393   2.143       .  S
O1391     Mg1399   2.158       .  S
O1391      C1426   1.236       .  S
C1392      O1405   1.235       .  S
C1392      O1429   1.271       .  A
C1392      H1431   1.081       .  S
Mg1393     O1422   2.148       .  S
Mg1393     O1437   2.295       .  S
Mg1393     O1433   2.261       .  S
Mg1393     O1404   2.304       .  S
O1394     Mg1436   2.138       .  S
O1394     Mg1419   2.134       .  S
O1394      C1415   1.233       .  S
O1395      C1426   1.270       .  A
O1395     Mg1419   2.299       .  S
C1396      O1398   1.269       .  A
C1396      O1410   1.275   1_565  A
O1397      C1425   1.268       .  A
O1397     Mg1399   2.299       .  S
O1398     Mg1430   2.239       .  S
Mg1399     O1405   2.144       .  S
Mg1399     O1413   2.258       .  S
Mg1399     O1401   2.267       .  S
C1400      O1438   1.272       .  A
C1400      C2253   1.488       .  S
O1401      C1408   1.270       .  A
H1402      C1415   1.081       .  S
C1403      O1417   1.235       .  S
C1403      O1418   1.270       .  A
C1403      H1428   1.081   1_565  S
O1404      C1427   1.270       .  A
O1405     Mg1419   2.157       .  S
O1406     Mg1436   2.281   1_545  S
C1407      O1420   1.274       .  A
C1407      O1412   1.271       .  A
C1407      C2278   1.499       .  S
C1408      O1435   1.270       .  A
C1408      C2292   1.484       .  S
Mg1409     O1416   2.153       .  S
Mg1409     O1417   2.172       .  S
Mg1409     O1410   2.314   1_565  S
Mg1409     O1411   2.296       .  S
O1411      C1415   1.268       .  A
O1412     Mg1419   2.292       .  S
O1413      C1432   1.270       .  A
O1414      C1434   1.273       .  A
O1414     Mg1430   2.295       .  S
O1416     Mg1430   2.151       .  S
O1416      C1427   1.235       .  S
O1417     Mg1436   2.163       .  S
O1418     Mg1430   2.302       .  S
Mg1419     O1435   2.255       .  S
O1420     Mg1436   2.296       .  S
H1421      C1426   1.081       .  S
O1422     Mg1430   2.138       .  S
O1422      C1425   1.234       .  S
H1423      C1425   1.081       .  S
H1424      C1427   1.081       .  S
O1429     Mg1436   2.306       .  S
C1432      O1437   1.272       .  A
C1432      C2264   1.490       .  S
O1433      C1434   1.270       .  A
C1434      C2309   1.491       .  S
C1439      C2306   1.476       .  S
C1439      C1440   1.412       .  A
C1439      C1444   1.393       .  A
C1440      C2379   1.492       .  S
C1440      C1441   1.415       .  A
C1441      H1446   1.083       .  S
C1441      C1442   1.415       .  A
C1442      C2225   1.496       .  S
C1442      C1443   1.415       .  A
C1443      C2236   1.477       .  S
C1443      C1444   1.396       .  A
C1444      H1445   1.085       .  S
O1447     Mg1449   2.148   1_554  S
O1447      C1482   1.234       .  S
C1448      O1461   1.234       .  S
C1448      O1485   1.269       .  A
C1448      H1487   1.081       .  S
Mg1449     O1460   2.303       .  S
O1450     Mg1475   2.143       .  S
O1450      C1471   1.234       .  S
O1451      C1482   1.269       .  A
O1451     Mg1475   2.303       .  S
C1452      O1454   1.269       .  A
C1452      O1466   1.272       .  A
C1452      C2208   1.476       .  S
O1453      C1481   1.270   1_554  A
O1453     Mg1455   2.305       .  S
O1454     Mg1486   2.255       .  S
Mg1455     O1461   2.168       .  S
Mg1455     O1469   2.290   1_565  S
C1456      O1494   1.272       .  A
C1456      O1462   1.274   1_556  A
C1456      C2169   1.490       .  S
O1457      C1464   1.274       .  A
H1458      C1471   1.081       .  S
C1459      O1473   1.235       .  S
C1459      O1474   1.270       .  A
C1459      H1484   1.081   1_556  S
O1460      C1483   1.270       .  A
C1463      O1476   1.273       .  A
C1463      O1468   1.274       .  A
C1463      C2407   1.497       .  S
C1464      O1491   1.269       .  A
C1464      C2449   1.486       .  S
Mg1465     O1472   2.161       .  S
Mg1465     O1467   2.302       .  S
Mg1465     O1494   2.279       .  S
O1467      C1471   1.269   1_556  A
O1468     Mg1475   2.307       .  S
O1469      C1488   1.273   1_545  A
O1470      C1490   1.273       .  A
O1470     Mg1486   2.301       .  S
O1472      C1483   1.235       .  S
O1473     Mg1492   2.150   1_556  S
O1474     Mg1486   2.304       .  S
Mg1475     O1491   2.243       .  S
H1477      C1482   1.081   1_556  S
O1478     Mg1486   2.148       .  S
O1478      C1481   1.235       .  S
H1479      C1481   1.081       .  S
H1480      C1483   1.081       .  S
O1485     Mg1492   2.301       .  S
C1488      O1493   1.274   1_554  A
C1488      C2180   1.495       .  S
O1489      C1490   1.273       .  A
C1490      C2197   1.493       .  S
O1495     Mg1497   2.137   1_556  S
O1495     Mg1503   2.161       .  S
O1495      C1530   1.235       .  S
C1496      O1509   1.236       .  S
C1496      O1533   1.271       .  A
C1496      H1535   1.081       .  S
Mg1497     O1526   2.159       .  S
Mg1497     O1541   2.284       .  S
Mg1497     O1537   2.255       .  S
Mg1497     O1508   2.296       .  S
O1498     Mg1540   2.143       .  S
O1498     Mg1523   2.135       .  S
O1498      C1519   1.234       .  S
O1499      C1530   1.269       .  A
O1499     Mg1523   2.295       .  S
C1500      O1502   1.268       .  A
C1500      O1514   1.274       .  A
C1500      C2435   1.481       .  S
O1501      C1529   1.268   1_556  A
O1501     Mg1503   2.297       .  S
O1502     Mg1534   2.240       .  S
Mg1503     O1509   2.149       .  S
Mg1503     O1517   2.269       .  S
Mg1503     O1505   2.301       .  S
C1504      O1542   1.272       .  A
C1504      O1510   1.274   1_554  A
C1504      C2113   1.489       .  S
O1505      C1512   1.275       .  A
H1506      C1519   1.081       .  S
C1507      O1521   1.234       .  S
C1507      O1522   1.268       .  A
C1507      H1532   1.081   1_554  S
O1508      C1531   1.268       .  A
O1509     Mg1523   2.151       .  S
O1510     Mg1540   2.288       .  S
C1511      O1524   1.269       .  A
C1511      O1516   1.271       .  A
C1511      C2155   1.491       .  S
C1512      O1539   1.266       .  A
C1512      C2141   1.488       .  S
Mg1513     O1520   2.143       .  S
Mg1513     O1521   2.160       .  S
Mg1513     O1514   2.290       .  S
Mg1513     O1515   2.296       .  S
Mg1513     O1542   2.265       .  S
O1515      C1519   1.268   1_554  A
O1516     Mg1523   2.277       .  S
O1517      C1536   1.273       .  A
O1518      C1538   1.270       .  A
O1518     Mg1534   2.280       .  S
O1520     Mg1534   2.156       .  S
O1520      C1531   1.234       .  S
O1521     Mg1540   2.136   1_554  S
O1522     Mg1534   2.295       .  S
Mg1523     O1539   2.229       .  S
O1524     Mg1540   2.263       .  S
H1525      C1530   1.081   1_554  S
O1526     Mg1534   2.138       .  S
O1526      C1529   1.233       .  S
H1527      C1529   1.081       .  S
H1528      C1531   1.081       .  S
O1533     Mg1540   2.308       .  S
C1536      O1541   1.272   1_556  A
C1536      C2124   1.490       .  S
O1537      C1538   1.271       .  A
C1538      C2239   1.485       .  S
O1543     Mg1545   2.165   1_556  S
O1543     Mg4107   2.159   1_455  S
O1543      C1578   1.232       .  S
C1544      O1557   1.234       .  S
C1544      O1581   1.268       .  A
C1544      H1583   1.081       .  S
Mg1545     O4130   2.168   1_455  S
Mg1545     O4145   2.305   1_455  S
Mg1545     O4141   2.267   1_455  S
Mg1545     O1556   2.298       .  S
O1546     Mg4144   2.162   1_455  S
O1546     Mg1571   2.164       .  S
O1546      C1567   1.236       .  S
O1547      C1578   1.267       .  A
O1547     Mg1571   2.299       .  S
C1548      O1550   1.277       .  A
C1548      O1562   1.277       .  A
C1548      C2222   1.497       .  S
O1549      C1577   1.272   1_556  A
O1549     Mg1551   2.310       .  S
O1550     Mg1582   2.302       .  S
Mg1551     O4099   2.157       .  S
Mg1551     O1557   2.137       .  S
Mg1551     O1565   2.257       .  S
Mg1551     O4109   2.312       .  S
C1552      O1590   1.274       .  A
C1552      O1558   1.272   1_554  A
C1552      C2068   1.495       .  S
O1553      C1560   1.279       .  A
O1553     Mg4107   2.329   1_455  S
H1554      C1567   1.081       .  S
C1555      O1569   1.233       .  S
C1555      O1570   1.268       .  A
C1555      H1580   1.081   1_554  S
O1556      C1579   1.270       .  A
O1557     Mg4127   2.167       .  S
O1558     Mg4144   2.286   1_455  S
C1559      O1572   1.272       .  A
C1559      O1564   1.276       .  A
C1559      C2085   1.492       .  S
C1560      O1587   1.276       .  A
C1560      C2099   1.503       .  S
Mg1561     O1568   2.158       .  S
Mg1561     O4125   2.157   1_455  S
Mg1561     O4118   2.324   1_455  S
Mg1561     O1563   2.310       .  S
Mg1561     O1590   2.288       .  S
O1562     Mg4117   2.311       .  S
O1563      C1567   1.272   1_554  A
O1564     Mg1571   2.313       .  S
O1565      C1584   1.270       .  A
O1566      C1586   1.277       .  A
O1566     Mg1582   2.320       .  S
O1568     Mg4138   2.173   1_455  S
O1568      C1579   1.235       .  S
O1569     Mg4117   2.158       .  S
O1569     Mg1588   2.158   1_554  S
O1570     Mg1582   2.299       .  S
Mg1571     O4113   2.177   1_455  S
Mg1571     O1587   2.298       .  S
O1572     Mg4144   2.280   1_455  S
H1573      C1578   1.081   1_554  S
O1574     Mg4101   2.162       .  S
O1574     Mg1582   2.173       .  S
O1574      C1577   1.236       .  S
H1575      C1577   1.081       .  S
H1576      C1579   1.081       .  S
O1581     Mg1588   2.291       .  S
Mg1582     O4124   2.173       .  S
C1584      O1589   1.274   1_556  A
C1584      C2057   1.489       .  S
O1585      C1586   1.271       .  A
O1585     Mg4101   2.261       .  S
C1586      C2390   1.496       .  S
Mg1588     O4102   2.167       .  S
Mg1588     O4114   2.290       .  S
Mg1588     O4128   2.260       .  S
O1589     Mg4101   2.293       .  S
O1591     Mg1593   2.148       .  S
O1591     Mg1599   2.161       .  S
O1591      C1626   1.234       .  S
C1592      O1605   1.236       .  S
C1592      O1629   1.271       .  A
C1592      H1631   1.081       .  S
Mg1593     O1622   2.143       .  S
Mg1593     O1637   2.283       .  S
Mg1593     O1633   2.271       .  S
Mg1593     O1604   2.304       .  S
O1594     Mg1636   2.145       .  S
O1594     Mg1619   2.137       .  S
O1594      C1615   1.233       .  S
O1595      C1626   1.268       .  A
O1595     Mg1619   2.294       .  S
C1596      O1598   1.271       .  A
C1596      O1610   1.272       .  A
C1596      C2040   1.486       .  S
O1597      C1625   1.270       .  A
O1597     Mg1599   2.308       .  S
O1598     Mg1630   2.254       .  S
Mg1599     O1605   2.153       .  S
Mg1599     O1601   2.325       .  S
C1600      O1638   1.271       .  A
C1600      O1606   1.275       .  A
C1600      C1970   1.494       .  S
O1601      C1608   1.277       .  A
H1602      C1615   1.081       .  S
C1603      O1617   1.234       .  S
C1603      O1618   1.268       .  A
C1603      H1628   1.081       .  S
O1604      C1627   1.271       .  A
O1605     Mg1619   2.159       .  S
O1606     Mg1636   2.297       .  S
C1607      O1620   1.270       .  A
C1607      O1612   1.272       .  A
C1607      C2012   1.489       .  S
C1608      O1635   1.268       .  A
Mg1609     O1616   2.153       .  S
Mg1609     O1617   2.162       .  S
Mg1609     O1610   2.288       .  S
Mg1609     O1611   2.296       .  S
Mg1609     O1638   2.269       .  S
O1611      C1615   1.268       .  A
O1612     Mg1619   2.280       .  S
O1613      C1632   1.271       .  A
O1614      C1634   1.274       .  A
O1614     Mg1630   2.296       .  S
O1616     Mg1630   2.161       .  S
O1616      C1627   1.236       .  S
O1617     Mg1636   2.141       .  S
O1618     Mg1630   2.296       .  S
Mg1619     O1635   2.234       .  S
O1620     Mg1636   2.267       .  S
H1621      C1626   1.081       .  S
O1622     Mg1630   2.146       .  S
O1622      C1625   1.235       .  S
H1623      C1625   1.081       .  S
H1624      C1627   1.081       .  S
O1629     Mg1636   2.307       .  S
C1632      C1987   1.488       .  S
O1633      C1634   1.270       .  A
C1634      C2026   1.496       .  S
C1639      C2096   1.498       .  S
C1639      C1640   1.413       .  A
C1639      C1644   1.414       .  A
C1640      C2152   1.475       .  S
C1640      C1641   1.396       .  A
C1641      H1646   1.085       .  S
C1641      C1642   1.394       .  A
C1642      C2015   1.480       .  S
C1642      C1643   1.418       .  A
C1643      C1956   1.498       .  S
C1643      C1644   1.416       .  A
C1644      H1645   1.083       .  S
C1647      C2194   1.486       .  S
C1647      C1648   1.424       .  A
C1647      C1652   1.407       .  A
C1648      C2082   1.496       .  S
C1648      C1649   1.409       .  A
C1649      H1654   1.084       .  S
C1649      C1650   1.403       .  A
C1650      C1942   1.479       .  S
C1650      C1651   1.407       .  A
C1651      C1998   1.484       .  S
C1651      C1652   1.399       .  A
C1652      H1653   1.084       .  S
O1655     Mg1657   2.148       .  S
O1655     Mg1663   2.151       .  S
O1655      C1690   1.235       .  S
C1656      O1669   1.234       .  S
C1656      O1693   1.269       .  A
C1656      H1695   1.081       .  S
Mg1657     O1686   2.149       .  S
Mg1657     O1701   2.276       .  S
Mg1657     O1697   2.263       .  S
Mg1657     O1668   2.295       .  S
O1658     Mg1700   2.164       .  S
O1658     Mg1683   2.166       .  S
O1658      C1679   1.235       .  S
O1659      C1690   1.269       .  A
O1659     Mg1683   2.301       .  S
C1660      O1662   1.270       .  A
C1660      O1674   1.274       .  A
C1660      C1917   1.493       .  S
O1661      C1689   1.270       .  A
O1661     Mg1663   2.302       .  S
O1662     Mg1694   2.262       .  S
Mg1663     O1669   2.149       .  S
Mg1663     O4233   2.275       .  S
Mg1663     O1665   2.290       .  S
C1664      O1702   1.272       .  A
C1664      O1670   1.275       .  A
C1664      C1872   1.497       .  S
O1665      C1672   1.274       .  A
H1666      C1679   1.081       .  S
C1667      O1681   1.234       .  S
C1667      O1682   1.269       .  A
C1667      H1692   1.081       .  S
O1668      C1691   1.269       .  A
O1669     Mg1683   2.160       .  S
C1671      O1684   1.271       .  A
C1671      O1676   1.274       .  A
C1672      O1699   1.275       .  A
C1672      C4515   1.494       .  S
Mg1673     O1680   2.145       .  S
Mg1673     O1681   2.153       .  S
Mg1673     O1674   2.289       .  S
Mg1673     O1675   2.304       .  S
O1675      C1679   1.270       .  A
O1676     Mg1683   2.297       .  S
O1677      C1696   1.274       .  A
O1677     Mg4219   2.287   1_455  S
O1678      C1698   1.275       .  A
O1678     Mg1694   2.307       .  S
O1680     Mg1694   2.160       .  S
O1680      C1691   1.235       .  S
O1681     Mg1700   2.144       .  S
O1682     Mg1694   2.300       .  S
Mg1683     O1699   2.294       .  S
O1684     Mg1700   2.252       .  S
H1685      C1690   1.081       .  S
O1686     Mg1694   2.142       .  S
O1686      C1689   1.235       .  S
H1687      C1689   1.081       .  S
H1688      C1691   1.081       .  S
O1693     Mg1700   2.301       .  S
C1696      O4257   1.272       .  A
C1696      C1886   1.493       .  S
O1697      C1698   1.270       .  A
C1698      C1931   1.493       .  S
O1701      C4252   1.272       .  A
O1703     Mg1705   2.144       .  S
O1703     Mg1711   2.160       .  S
O1703      C1738   1.234       .  S
C1704      O1717   1.234       .  S
C1704      O1741   1.269       .  A
C1704      H1743   1.081       .  S
Mg1705     O1734   2.159       .  S
Mg1705     O1749   2.304       .  S
Mg1705     O1745   2.271       .  S
Mg1705     O1716   2.304       .  S
O1706     Mg1748   2.156       .  S
O1706     Mg1731   2.143       .  S
O1706      C1727   1.235       .  S
O1707      C1738   1.269       .  A
O1707     Mg1731   2.300       .  S
C1708      O1710   1.269       .  A
C1708      O1722   1.274       .  A
C1708      C4501   1.484       .  S
O1709      C1737   1.269       .  A
O1709     Mg1711   2.298       .  S
O1710     Mg1742   2.242       .  S
Mg1711     O1717   2.150       .  S
Mg1711     O1725   2.264       .  S
Mg1711     O1713   2.284       .  S
C1712      O1750   1.273       .  A
C1712      O4274   1.272       .  A
C1712      C1802   1.494       .  S
O1713      C1720   1.272       .  A
H1714      C1727   1.081       .  S
C1715      O1729   1.235       .  S
C1715      O1730   1.270       .  A
C1715      H1740   1.081       .  S
O1716      C1739   1.269       .  A
O1717     Mg1731   2.159       .  S
O1718      C4268   1.270       .  A
O1718     Mg1748   2.275       .  S
C1719      O1732   1.271       .  A
C1719      O1724   1.274       .  A
C1719      C1858   1.494       .  S
C1720      O1747   1.271       .  A
C1720      C1847   1.485       .  S
Mg1721     O1728   2.160       .  S
Mg1721     O1729   2.151       .  S
Mg1721     O1722   2.298       .  S
Mg1721     O1723   2.307       .  S
Mg1721     O4306   2.282       .  S
O1723      C1727   1.270       .  A
O1724     Mg1731   2.298       .  S
O1725      C1744   1.271       .  A
O1726      C1746   1.274       .  A
O1726     Mg1742   2.302       .  S
O1728     Mg1742   2.156       .  S
O1728      C1739   1.234       .  S
O1729     Mg1748   2.157       .  S
O1730     Mg1742   2.306       .  S
Mg1731     O1747   2.259       .  S
O1732     Mg1748   2.275       .  S
H1733      C1738   1.081       .  S
O1734     Mg1742   2.147       .  S
O1734      C1737   1.235       .  S
H1735      C1737   1.081       .  S
H1736      C1739   1.081       .  S
O1741     Mg1748   2.297       .  S
C1744      O1749   1.276       .  A
C1744      C1819   1.493       .  S
O1745      C1746   1.272       .  A
C1746      C1833   1.494       .  S
O1750     Mg4277   2.289   1_455  S
C1751      C2138   1.476       .  S
C1751      C1752   1.407       .  A
C1751      C1756   1.397       .  A
C1752      C2211   1.477       .  S
C1752      C1753   1.398       .  A
C1753      H1758   1.084       .  S
C1753      C1754   1.405       .  A
C1754      C1900   1.487       .  S
C1754      C1755   1.421       .  A
C1755      C1830   1.483       .  S
C1755      C1756   1.403       .  A
C1756      H1757   1.084       .  S
C1759      C2505   1.477       .  S
C1759      C1760   1.416       .  A
C1759      C1764   1.400   1_455  A
C1760      C2351   1.491       .  S
C1760      C1761   1.405       .  A
C1761      H1766   1.084       .  S
C1761      C4318   1.404   1_455  A
C1762      C1861   1.484       .  S
C1762      C4317   1.404       .  A
C1762      C1763   1.418       .  A
C1763      C1928   1.490       .  S
C1763      C4320   1.403       .  A
C1764      H1765   1.085       .  S
C1764      C4319   1.401       .  A
C1767      C2519   1.480       .  S
C1767      C1768   1.410       .  A
C1767      C1772   1.398       .  A
C1768      C2295   1.476       .  S
C1768      C1769   1.403       .  A
C1769      H1774   1.084       .  S
C1769      C1770   1.403       .  A
C1770      C1844   1.484       .  S
C1770      C1771   1.414       .  A
C1771      C2043   1.476       .  S
C1771      C1772   1.399       .  A
C1772      H1773   1.084       .  S
C1775      C2365   1.483       .  S
C1775      C1776   1.414       .  A
C1775      C1780   1.406       .  A
C1776      C2281   1.485       .  S
C1776      C1777   1.401   1_565  A
C1777      H1782   1.084       .  S
C1778      C1914   1.479       .  S
C1778      C1779   1.414       .  A
C1779      C2029   1.484       .  S
C1780      H1781   1.084       .  S
C1783      C2071   1.493   1_556  S
C1783      C1784   1.411   1_566  A
C1783      C4344   1.415   1_455  A
C1784      C2183   1.490       .  S
C1785      C2110   1.482       .  S
C1785      C1786   1.415   1_454  A
C1786      C4610   1.493       .  S
C1786      C3065   1.414       .  A
C1787      C3064   1.414   1_565  A
C1787      C1788   1.413       .  A
C1788      C2127   1.484       .  S
C1788      C4339   1.411   1_556  A
C1789      C2491   1.494       .  S
C1789      C1790   1.420       .  A
C1789      C1794   1.415       .  A
C1790      C2250   1.483       .  S
C1790      C1791   1.415       .  A
C1791      C2323   1.496       .  S
C1791      C1792   1.410       .  A
C1792      C2477   1.485       .  S
C1792      C1793   1.414       .  A
C1793      C2267   1.484       .  S
C1793      C1794   1.414       .  A
C1794      C2334   1.495       .  S
C1795      C1816   1.486       .  S
C1795      C1796   1.416       .  A
C1795      C1800   1.417       .  A
C1796      C1875   1.498       .  S
C1796      C1797   1.414       .  A
C1797      C1984   1.479       .  S
C1797      C1798   1.413       .  A
C1798      C1805   1.489       .  S
C1798      C1799   1.410       .  A
C1799      C1889   1.488       .  S
C1799      C1800   1.412       .  A
C1800      C1973   1.486       .  S
C1801      H1808   1.083       .  S
C1801      C1802   1.408       .  A
C1801      C1806   1.407       .  A
C1802      C1803   1.418       .  A
C1803      C1804   1.399       .  A
C1803      N1810   1.433       .  S
C1804      H1809   1.083       .  S
C1804      C1805   1.397       .  A
C1805      C1806   1.417       .  A
C1806      N1807   1.438       .  S
N1807      H1811   1.045       .  S
N1807      H1812   1.044       .  S
N1810      H1813   1.046       .  S
N1810      H1814   1.046       .  S
C1815      H1822   1.084       .  S
C1815      C1816   1.396       .  A
C1815      C1820   1.395       .  A
C1816      C1817   1.415       .  A
C1817      C1818   1.407       .  A
C1817      N1824   1.437       .  S
C1818      H1823   1.083       .  S
C1818      C1819   1.411       .  A
C1819      C1820   1.412       .  A
C1820      N1821   1.427       .  S
N1821      H1825   1.045       .  S
N1821      H1826   1.046       .  S
N1824      H1827   1.043       .  S
N1824      H1828   1.046       .  S
C1829      H1836   1.084       .  S
C1829      C1830   1.396       .  A
C1829      C1834   1.394       .  A
C1830      C1831   1.411       .  A
C1831      C1832   1.409       .  A
C1831      N1838   1.438       .  S
C1832      H1837   1.083       .  S
C1832      C1833   1.409       .  A
C1833      C1834   1.420       .  A
C1834      N1835   1.426       .  S
N1835      H1839   1.044       .  S
N1835      H1840   1.045       .  S
N1838      H1841   1.046       .  S
N1838      H1842   1.046       .  S
C1843      H1850   1.083       .  S
C1843      C1844   1.401       .  A
C1843      C1848   1.398       .  A
C1844      C1845   1.409       .  A
C1845      C1846   1.407       .  A
C1845      N1852   1.438       .  S
C1846      H1851   1.083       .  S
C1846      C1847   1.409       .  A
C1847      C1848   1.413       .  A
C1848      N1849   1.433       .  S
N1849      H1853   1.046       .  S
N1849      H1854   1.046       .  S
N1852      H1855   1.044       .  S
N1852      H1856   1.046       .  S
C1857      H1864   1.084       .  S
C1857      C1858   1.409       .  A
C1857      C1862   1.401       .  A
C1858      C1859   1.418       .  A
C1859      C1860   1.411       .  A
C1859      N4422   1.437       .  S
C1860      H4421   1.084       .  S
C1860      C1861   1.403       .  A
C1861      C1862   1.403       .  A
C1862      N1863   1.432       .  S
N1863      H1867   1.045       .  S
N1863      H1868   1.046       .  S
H1865      C4416   1.084       .  S
N1866      C4415   1.437   1_455  S
N1866      H1869   1.045       .  S
N1866      H1870   1.046       .  S
C1871      H1878   1.084       .  S
C1871      C1872   1.409       .  A
C1871      C1876   1.407       .  A
C1872      C1873   1.416       .  A
C1873      C1874   1.403       .  A
C1873      N1880   1.433       .  S
C1874      H1879   1.084       .  S
C1874      C1875   1.401       .  A
C1875      C1876   1.417       .  A
C1876      N1877   1.438       .  S
N1877      H1881   1.045       .  S
N1877      H1882   1.042       .  S
N1880      H1883   1.046       .  S
N1880      H1884   1.046       .  S
C1885      H1892   1.083       .  S
C1885      C1886   1.410       .  A
C1885      C1890   1.399       .  A
C1886      C1887   1.414       .  A
C1887      C1888   1.404       .  A
C1887      N1894   1.431       .  S
C1888      H1893   1.084       .  S
C1888      C1889   1.401       .  A
C1889      C1890   1.413       .  A
C1890      N1891   1.439       .  S
N1891      H1895   1.045       .  S
N1891      H1896   1.043       .  S
N1894      H1897   1.045       .  S
N1894      H1898   1.046       .  S
C1899      H1906   1.084       .  S
C1899      C1900   1.400       .  A
C1899      C1904   1.399       .  A
C1900      C1901   1.411       .  A
C1901      C1902   1.408       .  A
C1901      N1908   1.438       .  S
C1902      H1907   1.084       .  S
C1902      C1903   1.406       .  A
C1903      C1904   1.422       .  A
N1905      H1910   1.045       .  S
N1908      H1911   1.045       .  S
N1908      H1912   1.045       .  S
C1913      H1920   1.084       .  S
C1913      C1914   1.400       .  A
C1913      C1918   1.400       .  A
C1914      C1915   1.406       .  A
C1915      C1916   1.403       .  A
C1916      H1921   1.083       .  S
C1916      C1917   1.411       .  A
C1917      C1918   1.422       .  A
C1918      N1919   1.432       .  S
N1919      H1923   1.045       .  S
N1919      H1924   1.045       .  S
N1922      H1925   1.045       .  S
N1922      H1926   1.046       .  S
C1927      H1934   1.084       .  S
C1927      C1928   1.401       .  A
C1927      C1932   1.399       .  A
C1928      C1929   1.412       .  A
C1929      C1930   1.408       .  A
C1929      N1936   1.438       .  S
C1930      H1935   1.083       .  S
C1930      C1931   1.408       .  A
C1931      C1932   1.422       .  A
C1932      N1933   1.432       .  S
N1933      H1937   1.045       .  S
N1933      H1938   1.045       .  S
N1936      H1939   1.045       .  S
N1936      H1940   1.046       .  S
C1941      H1948   1.084       .  S
C1941      C1942   1.400       .  A
C1941      C1946   1.404       .  A
C1942      C1943   1.403       .  A
C1943      C1944   1.402       .  A
C1943      N1950   1.432       .  S
C1944      H1949   1.083       .  S
C1944      C1945   1.409       .  A
C1945      C4264   1.489   1_455  S
C1945      C1946   1.416       .  A
C1946      N1947   1.432   1_455  S
N1947      H1951   1.046       .  S
N1947      H1952   1.046       .  S
N1950      H1953   1.045       .  S
N1950      H1954   1.046       .  S
C1955      H1962   1.081       .  S
C1955      C1956   1.402       .  A
C1955      C1960   1.406       .  A
C1956      C1957   1.413       .  A
C1957      C4514   1.414       .  A
C1957      N4520   1.438       .  S
C1958      H1963   1.083       .  S
C1958      C4513   1.411       .  A
C1958      C4515   1.409       .  A
C1959      C4228   1.498   1_455  S
C1959      C4514   1.409       .  A
C1959      C1960   1.417       .  A
C1960      N1961   1.438       .  S
N1961      H1965   1.046       .  S
N1961      H1966   1.046       .  S
N1964      C4513   1.438       .  S
N1964      H4523   1.045       .  S
N1964      H1968   1.046       .  S
H1967      N4520   1.044       .  S
C1969      H1976   1.084       .  S
C1969      C1970   1.410       .  A
C1969      C1974   1.400       .  A
C1970      C1971   1.420       .  A
C1971      C1972   1.400       .  A
C1971      N1978   1.432       .  S
C1972      H1977   1.083       .  S
C1972      C1973   1.402       .  A
C1973      C1974   1.413       .  A
C1974      N1975   1.439       .  S
N1975      H1979   1.045       .  S
N1975      H1980   1.043       .  S
N1978      H1981   1.046       .  S
N1978      H1982   1.043       .  S
C1983      H1990   1.083       .  S
C1983      C1984   1.402       .  A
C1983      C1988   1.407       .  A
C1984      C1985   1.410       .  A
C1985      C1986   1.395       .  A
C1985      N1992   1.439       .  S
C1986      H1991   1.083       .  S
C1986      C1987   1.408       .  A
C1987      C1988   1.416       .  A
C1988      N1989   1.438       .  S
N1989      H1993   1.046       .  S
N1989      H1994   1.045       .  S
N1992      H1995   1.042       .  S
N1992      H1996   1.046       .  S
C1997      H2004   1.083       .  S
C1997      C1998   1.401       .  A
C1998      C1999   1.407       .  A
C1999      C2000   1.406       .  A
C1999      N2006   1.438       .  S
C2000      H2005   1.083       .  S
C2000      C2001   1.408       .  A
C2002      N2003   1.438       .  S
N2003      H2007   1.046       .  S
N2003      H2008   1.046       .  S
N2006      H2009   1.045       .  S
N2006      H2010   1.045       .  S
C2011      H2018   1.084       .  S
C2011      C2012   1.410       .  A
C2011      C2016   1.396       .  A
C2012      C2013   1.415       .  A
C2013      C2014   1.404       .  A
C2013      N2020   1.432       .  S
C2014      H2019   1.084       .  S
C2014      C2015   1.402       .  A
C2015      C2016   1.407       .  A
C2016      N2017   1.432       .  S
N2017      H2021   1.044       .  S
N2017      H2022   1.045       .  S
N2020      H2023   1.045       .  S
N2020      H2024   1.046       .  S
C2025      H2032   1.084       .  S
C2025      C2026   1.410       .  A
C2025      C2030   1.400       .  A
C2026      C2027   1.421       .  A
C2027      C2028   1.403       .  A
C2028      C2029   1.402       .  A
C2029      C2030   1.413       .  A
C2030      N2031   1.439       .  S
N2031      H2035   1.045       .  S
N2031      H2036   1.043       .  S
N2034      H2037   1.045       .  S
N2034      H2038   1.045       .  S
C2039      H2046   1.084       .  S
C2039      C2040   1.407       .  A
C2039      C2044   1.399       .  A
C2040      C2041   1.419       .  A
C2041      C2042   1.402       .  A
C2041      N2048   1.438       .  S
C2042      H2047   1.084       .  S
C2042      C2043   1.398       .  A
C2043      C2044   1.413       .  A
C2044      N2045   1.437       .  S
N2045      H2049   1.045       .  S
N2045      H2050   1.043       .  S
N2048      H2051   1.046       .  S
N2048      H2052   1.046       .  S
C2053      H2060   1.084       .  S
C2053      C4610   1.402       .  A
C2053      C2058   1.404       .  A
C2054      C4342   1.486       .  S
C2054      C4609   1.401       .  A
C2054      C2055   1.413   1_556  A
C2055      C2056   1.400       .  A
C2055      N2062   1.439       .  S
C2056      H2061   1.084       .  S
C2056      C2057   1.409   1_554  A
C2057      C4614   1.414       .  A
C2058      C4613   1.415       .  A
C2058      N2059   1.432       .  S
N2059      H2063   1.046       .  S
N2059      H2064   1.046   1_655  S
N2062      H2065   1.042       .  S
N2062      H2066   1.046       .  S
C2067      H2074   1.083       .  S
C2067      C4624   1.408       .  A
C2067      C2072   1.403       .  A
C2068      C4623   1.408       .  A
C2068      C2069   1.419   1_554  A
C2069      C2070   1.402       .  A
C2069      N2076   1.433       .  S
C2070      H2075   1.083       .  S
C2070      C2071   1.398   1_556  A
C2071      C4628   1.417       .  A
C2072      C4627   1.416       .  A
C2072      N2073   1.438       .  S
N2073      H2077   1.045       .  S
N2073      H2078   1.043       .  S
N2076      H2079   1.046       .  S
N2076      H2080   1.046       .  S
C2081      H2088   1.084       .  S
C2081      C2082   1.406       .  A
C2081      C2086   1.404       .  A
C2082      C2083   1.412       .  A
C2083      C2084   1.409       .  A
C2083      N2090   1.437       .  S
C2084      H2089   1.084       .  S
C2084      C2085   1.408       .  A
C2085      C2086   1.417       .  A
C2086      N4643   1.432   1_455  S
N2087      C4642   1.433       .  S
N2087      H2091   1.043       .  S
N2087      H2092   1.046       .  S
N2090      H2093   1.045       .  S
N2090      H2094   1.045       .  S
C2095      H2102   1.084       .  S
C2095      C2096   1.406       .  A
C2095      C2100   1.410       .  A
C2096      C2097   1.412       .  A
C2097      C2098   1.406       .  A
C2097      N2104   1.432       .  S
C2098      H2103   1.084       .  S
C2098      C2099   1.412       .  A
C2099      C2100   1.415       .  A
C2100      N2101   1.432       .  S
N2101      H2105   1.046       .  S
N2101      H2106   1.046       .  S
N2104      H2107   1.045       .  S
N2104      H4664   1.045       .  S
H2108      N4660   1.045       .  S
C2109      H2116   1.084       .  S
C2109      C2110   1.400       .  A
C2109      C2114   1.404       .  A
C2110      C2111   1.404   1_554  A
C2111      C2112   1.399       .  A
C2111      N2118   1.432       .  S
C2112      H2117   1.083       .  S
C2112      C2113   1.409   1_556  A
C2113      C2114   1.416       .  A
C2114      N2115   1.432       .  S
N2115      H2119   1.046       .  S
N2115      H2120   1.046       .  S
N2118      H2121   1.045       .  S
N2118      H2122   1.045       .  S
C2123      H2130   1.083       .  S
C2123      C2124   1.409       .  A
C2123      C2128   1.404       .  A
C2124      C2125   1.419   1_556  A
C2125      C2126   1.399       .  A
C2125      N2132   1.433       .  S
C2126      H2131   1.083       .  S
C2126      C2127   1.397   1_554  A
C2127      C2128   1.405       .  A
C2128      N2129   1.432       .  S
N2129      H2133   1.045       .  S
N2129      H2134   1.046       .  S
N2132      H2135   1.046       .  S
N2132      H2136   1.046       .  S
C2137      H2144   1.084       .  S
C2137      C2138   1.396       .  A
C2137      C2142   1.403       .  A
C2138      C2139   1.406       .  A
C2139      C2140   1.403       .  A
C2139      N2146   1.437       .  S
C2140      H2145   1.083       .  S
C2140      C2141   1.408       .  A
C2141      C2142   1.422       .  A
C2142      N2143   1.438       .  S
N2143      H2147   1.046       .  S
N2143      H2148   1.046       .  S
N2146      H2149   1.045       .  S
N2146      H2150   1.046       .  S
C2151      H2158   1.084       .  S
C2151      C2152   1.400       .  A
C2151      C2156   1.397       .  A
C2152      C2153   1.411       .  A
C2153      C2154   1.399       .  A
C2153      N2160   1.439       .  S
C2154      H2159   1.083       .  S
C2154      C2155   1.411       .  A
C2155      C2156   1.420       .  A
C2156      N2157   1.432       .  S
N2157      H2161   1.045       .  S
N2157      H2162   1.045       .  S
N2160      H2163   1.043       .  S
N2160      H2164   1.046       .  S
C2165      H2172   1.083       .  S
C2165      C2166   1.405       .  A
C2165      C2170   1.409       .  A
C2167      C2168   1.397       .  A
C2167      N2174   1.439       .  S
C2168      H2173   1.084       .  S
C2169      C2170   1.414       .  A
C2170      N2171   1.437       .  S
N2171      H2175   1.046       .  S
N2171      H2176   1.046       .  S
N2174      H2177   1.042       .  S
N2174      H2178   1.046       .  S
C2179      H2186   1.084       .  S
C2179      C2184   1.400       .  A
C2180      C2181   1.416   1_565  A
C2181      C2182   1.409       .  A
C2181      N2188   1.432   1_545  S
C2182      H2187   1.083       .  S
C2182      C2183   1.403       .  A
C2184      N2185   1.432       .  S
N2185      H2189   1.045       .  S
N2185      H2190   1.045       .  S
N2188      H2191   1.045       .  S
N2188      H2192   1.046   1_565  S
C2193      H2200   1.084       .  S
C2193      C2194   1.403       .  A
C2193      C2198   1.405       .  A
C2194      C2195   1.406       .  A
C2195      C2196   1.406       .  A
C2195      N2202   1.432       .  S
C2196      C2197   1.409       .  A
C2197      C2198   1.416       .  A
C2198      N2199   1.433       .  S
N2199      H2203   1.045       .  S
N2199      H2204   1.046       .  S
N2202      H2205   1.045       .  S
C2207      H2214   1.084       .  S
C2207      C2208   1.407       .  A
C2207      C2212   1.398       .  A
C2208      C2209   1.409       .  A
C2209      C2210   1.403       .  A
C2209      N2216   1.432       .  S
C2210      H2215   1.084       .  S
C2210      C2211   1.404       .  A
C2211      C2212   1.403       .  A
C2212      N2213   1.433       .  S
N2213      H2217   1.045       .  S
N2213      H2218   1.045       .  S
N2216      H2219   1.046       .  S
N2216      H2220   1.046       .  S
C2221      H2228   1.084       .  S
C2221      C2222   1.410       .  A
C2221      C2226   1.407       .  A
C2222      C2223   1.415       .  A
C2223      C2224   1.413       .  A
C2223      N2230   1.437       .  S
C2224      H2229   1.084       .  S
C2224      C2225   1.407       .  A
C2225      C2226   1.406       .  A
C2226      N2227   1.432       .  S
N2227      H2231   1.046       .  S
N2227      H2232   1.045       .  S
N2230      H2233   1.046       .  S
N2230      H2234   1.046       .  S
C2235      H2242   1.084       .  S
C2235      C2236   1.399       .  A
C2235      C2240   1.396       .  A
C2236      C2237   1.406       .  A
C2237      C2238   1.403       .  A
C2237      N2244   1.437       .  S
C2238      H2243   1.083       .  S
C2238      C2239   1.408       .  A
C2239      C2240   1.421       .  A
C2240      N2241   1.433       .  S
N2241      H2245   1.043       .  S
N2241      H2246   1.045       .  S
N2244      H2247   1.045       .  S
N2244      H2248   1.046       .  S
C2249      H2256   1.084       .  S
C2249      C2250   1.401       .  A
C2249      C2254   1.405       .  A
C2250      C2251   1.415       .  A
C2251      C2252   1.396       .  A
C2251      N2258   1.439       .  S
C2252      H2257   1.084       .  S
C2252      C2253   1.407       .  A
C2253      C2254   1.417       .  A
C2254      N2255   1.438       .  S
N2255      H2259   1.046       .  S
N2255      H2260   1.046       .  S
N2258      H2261   1.042       .  S
N2258      H2262   1.046       .  S
C2263      H2270   1.084       .  S
C2263      C2264   1.406       .  A
C2263      C2268   1.402       .  A
C2264      C2265   1.422       .  A
C2265      C2266   1.395       .  A
C2265      N2272   1.430       .  S
C2266      H2271   1.084       .  S
C2266      C2267   1.397       .  A
C2267      C2268   1.416       .  A
C2268      N2269   1.437       .  S
N2269      H2273   1.046       .  S
N2269      H2274   1.041       .  S
N2272      H2275   1.042       .  S
N2272      H2276   1.046       .  S
C2277      H2284   1.084       .  S
C2277      C2278   1.410   1_545  A
C2277      C2282   1.407       .  A
C2278      C2279   1.426       .  A
C2279      C2280   1.398       .  A
C2279      N2286   1.433       .  S
C2280      H2285   1.085       .  S
C2280      C2281   1.397       .  A
C2281      C2282   1.416   1_565  A
C2282      N2283   1.439       .  S
N2283      H2287   1.045       .  S
N2283      H2288   1.043       .  S
N2286      H2289   1.045       .  S
N2286      H2290   1.045       .  S
C2291      H2298   1.084       .  S
C2291      C2292   1.407       .  A
C2291      C2296   1.400       .  A
C2292      C2293   1.417       .  A
C2293      C2294   1.400       .  A
C2293      N2300   1.439       .  S
C2294      H2299   1.084       .  S
C2294      C2295   1.400       .  A
C2295      C2296   1.414       .  A
C2296      N2297   1.439       .  S
N2297      H2301   1.045       .  S
N2297      H2302   1.043       .  S
N2300      H2303   1.046       .  S
N2300      H2304   1.046       .  S
C2305      H2312   1.082       .  S
C2305      C2306   1.397       .  A
C2305      C2310   1.400       .  A
C2306      C2307   1.403       .  A
C2307      C2308   1.403       .  A
C2307      N2314   1.432       .  S
C2308      H2313   1.083       .  S
C2308      C2309   1.411       .  A
C2309      C2310   1.416       .  A
C2310      N2311   1.430       .  S
N2311      H2315   1.046       .  S
N2311      H2316   1.046       .  S
N2314      H2317   1.045       .  S
N2314      H2318   1.046       .  S
C2319      H2326   1.083       .  S
C2319      C2320   1.410       .  A
C2319      C2324   1.403       .  A
C2320      C2321   1.415       .  A
C2321      C2322   1.407       .  A
C2321      N2328   1.432       .  S
C2322      H2327   1.082       .  S
C2322      C2323   1.403       .  A
C2323      C2324   1.404       .  A
C2324      N2325   1.432       .  S
N2325      H2329   1.046       .  S
N2325      H2330   1.045       .  S
N2328      H2331   1.045       .  S
N2328      H2332   1.046       .  S
C2333      H2340   1.084       .  S
C2333      C2334   1.404       .  A
C2333      C2338   1.410       .  A
C2334      C2335   1.414       .  A
C2335      C2336   1.398       .  A
C2335      N2342   1.437       .  S
C2336      H2341   1.083       .  S
C2336      C2337   1.409       .  A
C2337      C2338   1.418       .  A
C2338      N2339   1.437       .  S
N2339      H2343   1.046       .  S
N2339      H2344   1.046       .  S
N2342      H2345   1.041       .  S
N2342      H2346   1.046       .  S
C2347      H2354   1.084       .  S
C2347      C2348   1.407       .  A
C2347      C2352   1.406       .  A
C2348      C2349   1.418       .  A
C2349      C2350   1.406   1_455  A
C2349      N2356   1.433   1_455  S
C2350      H2355   1.083       .  S
C2350      C2351   1.402   1_655  A
C2351      C2352   1.409       .  A
C2352      N2353   1.432       .  S
N2353      H2357   1.045       .  S
N2353      H2358   1.046       .  S
N2356      H2359   1.046       .  S
N2356      H2360   1.046       .  S
C2361      H2368   1.084       .  S
C2361      C2362   1.408       .  A
C2361      C2366   1.403       .  A
C2362      C2363   1.419       .  A
C2363      C2364   1.404       .  A
C2363      N2370   1.438   1_565  S
C2364      H2369   1.082   1_565  S
C2364      C2365   1.399       .  A
C2365      C2366   1.415       .  A
C2366      N2367   1.439       .  S
N2367      H2371   1.046       .  S
N2367      H2372   1.043       .  S
N2370      H2373   1.046   1_545  S
N2370      H2374   1.046       .  S
C2375      H2382   1.084       .  S
C2375      C2376   1.410       .  A
C2375      C2380   1.401       .  A
C2376      C3904   1.495       .  S
C2376      C2377   1.415       .  A
C2377      C2378   1.412       .  A
C2377      N2384   1.437       .  S
C2378      H2383   1.084       .  S
C2378      C2379   1.406       .  A
C2379      C2380   1.410       .  A
C2380      N2381   1.433       .  S
N2381      H2385   1.045       .  S
N2381      H2386   1.044       .  S
N2384      H2387   1.046       .  S
N2384      H2388   1.046       .  S
C2389      H2396   1.083       .  S
C2389      C2390   1.410       .  A
C2389      C2394   1.407       .  A
C2390      C2391   1.417       .  A
C2391      C2392   1.405       .  A
C2391      N2398   1.433       .  S
C2392      H2397   1.083       .  S
C2392      C2393   1.401       .  A
C2393      C2394   1.405       .  A
C2394      N2395   1.432       .  S
N2395      H4955   1.046       .  S
N2395      H2400   1.045       .  S
N2398      H2401   1.046       .  S
N2398      H2402   1.045       .  S
H2399      N4951   1.046       .  S
C2403      H2410   1.084       .  S
C2403      C2404   1.403       .  A
C2403      C2408   1.408       .  A
C2404      C2405   1.416       .  A
C2405      C2406   1.403       .  A
C2405      N2412   1.438       .  S
C2406      H2411   1.084       .  S
C2406      C2407   1.409       .  A
C2407      C2408   1.418       .  A
C2408      N2409   1.438       .  S
N2409      H2413   1.046       .  S
N2409      H2414   1.046       .  S
N2412      H2415   1.042       .  S
N2412      H2416   1.046       .  S
C2417      H2424   1.084       .  S
C2417      C2418   1.401       .  A
C2417      C2422   1.401       .  A
C2418      C2419   1.410       .  A
C2419      C2420   1.406       .  A
C2419      N2426   1.437       .  S
C2420      H2425   1.084       .  S
C2420      C2421   1.407       .  A
C2421      C2422   1.421       .  A
N2423      H2428   1.045       .  S
N2426      H2429   1.045       .  S
N2426      H2430   1.045       .  S
C2431      H2438   1.083       .  S
C2431      C2432   1.400       .  A
C2431      C2436   1.394       .  A
C2432      C2433   1.405       .  A
C2433      C2434   1.402       .  A
C2433      N2440   1.438       .  S
C2434      H2439   1.083       .  S
C2434      C2435   1.410       .  A
C2435      C2436   1.418       .  A
C2436      N2437   1.433       .  S
N2437      H2441   1.043       .  S
N2437      H2442   1.045       .  S
N2440      H2443   1.044       .  S
N2440      H2444   1.046       .  S
C2445      H2452   1.084       .  S
C2445      C2446   1.399       .  A
C2445      C2450   1.403       .  A
C2446      C2447   1.413       .  A
C2447      C2448   1.399       .  A
C2447      N2454   1.439       .  S
C2448      H2453   1.084       .  S
C2448      C2449   1.408       .  A
C2449      C2450   1.416       .  A
C2450      N2451   1.438       .  S
N2451      H2455   1.046       .  S
N2451      H2456   1.046       .  S
N2454      H2457   1.043       .  S
N2454      H2458   1.046       .  S
C2459      H2466   1.084       .  S
C2459      C2460   1.398       .  A
C2459      C2464   1.402       .  A
C2460      C2461   1.406       .  A
C2461      N2468   1.432       .  S
C2462      H2467   1.084       .  S
C2463      C2464   1.416       .  A
C2464      N2465   1.433       .  S
N2465      H2469   1.046       .  S
N2465      H2470   1.046       .  S
N2468      H2471   1.046       .  S
C2473      H2480   1.084       .  S
C2473      C2474   1.410       .  A
C2473      C2478   1.399       .  A
C2474      C2475   1.418       .  A
C2475      C2476   1.404       .  A
C2475      N2482   1.438       .  S
C2476      H2481   1.084       .  S
C2476      C2477   1.401       .  A
C2477      C2478   1.412       .  A
C2478      N2479   1.438       .  S
N2479      H2483   1.046       .  S
N2479      H2484   1.042       .  S
N2482      H2485   1.046       .  S
N2482      H2486   1.046       .  S
C2487      H2494   1.084       .  S
C2487      C2488   1.407       .  A
C2487      C2492   1.397       .  A
C2488      C2489   1.412       .  A
C2489      C2490   1.411       .  A
C2489      N2496   1.437       .  S
C2490      H2495   1.084       .  S
C2490      C2491   1.408       .  A
C2491      C2492   1.414       .  A
C2492      N2493   1.438       .  S
N2493      H2497   1.045       .  S
N2493      H2498   1.040       .  S
N2496      H2499   1.046       .  S
N2496      H2500   1.046       .  S
C2501      H2508   1.084       .  S
C2501      C2502   1.410       .  A
C2501      C2506   1.395       .  A
C2502      C2503   1.418   1_455  A
C2503      C5060   1.408       .  A
C2503      N5066   1.438       .  S
C2504      H2509   1.084       .  S
C2504      C5059   1.406       .  A
C2504      C5061   1.401       .  A
C2505      C5060   1.401   1_455  A
C2505      C2506   1.407       .  A
C2506      N2507   1.433       .  S
N2507      H2511   1.045       .  S
N2507      H2512   1.044       .  S
N2510      C5059   1.433       .  S
N2510      H2513   1.046       .  S
N2510      H2514   1.046       .  S
C2515      H2522   1.084       .  S
C2515      C2516   1.408       .  A
C2515      C2520   1.398       .  A
C2516      C2517   1.415       .  A
C2517      C2518   1.400       .  A
C2517      N2524   1.432       .  S
C2518      H2523   1.084       .  S
C2518      C2519   1.404       .  A
C2519      C2520   1.413       .  A
C2520      N2521   1.440       .  S
N2521      H2525   1.046       .  S
N2521      H2526   1.043       .  S
N2524      H2527   1.044       .  S
N2524      H2528   1.046       .  S
C2529      H2536   1.083       .  S
C2529      C5086   1.410   1_455  A
C2529      C5090   1.399   1_455  A
C2530      C3852   1.482       .  S
C2530      C5085   1.407       .  A
C2530      C2531   1.414       .  A
C2531      C2532   1.402       .  A
C2531      N2538   1.438       .  S
C2532      H2537   1.083       .  S
C2532      C2533   1.404       .  A
C2533      C2534   1.411       .  A
C2534      C5085   1.397       .  A
C2534      N5091   1.433       .  S
N2535      C5090   1.433   1_455  S
N2535      H2539   1.045       .  S
N2535      H5096   1.044   1_455  S
N2538      H2541   1.046       .  S
N2538      H2542   1.046       .  S
H2540      N5091   1.045       .  S
C2543      H2550   1.083       .  S
C2543      C2544   1.410       .  A
C2543      C2548   1.406       .  A
C2544      C2545   1.416       .  A
C2545      C2546   1.402       .  A
C2545      N2552   1.433       .  S
C2546      H2551   1.084       .  S
C2546      C2547   1.400       .  A
C2547      C2548   1.407       .  A
C2548      N2549   1.437       .  S
N2549      H2553   1.046       .  S
N2549      H2554   1.046       .  S
N2552      H2555   1.046       .  S
N2552      H2556   1.046       .  S
O2557     Mg2559   2.155       .  S
O2557     Mg2565   2.169       .  S
O2557      C2592   1.234       .  S
C2558      O2571   1.234       .  S
C2558      O2595   1.269       .  A
C2558      H2597   1.081       .  S
Mg2559     O2588   2.156       .  S
Mg2559     O2603   2.255       .  S
Mg2559     O2599   2.275       .  S
Mg2559     O2570   2.296       .  S
O2560     Mg2602   2.161       .  S
O2560     Mg2585   2.152       .  S
O2560      C2581   1.235       .  S
O2561      C2592   1.269       .  A
O2561     Mg2585   2.301       .  S
C2562      O2564   1.268       .  A
C2562      O2576   1.273       .  A
C2562      C3794   1.488       .  S
O2563      C2591   1.269       .  A
O2563     Mg2565   2.297       .  S
O2564     Mg2596   2.256       .  S
Mg2565     O2571   2.164       .  S
Mg2565     O2567   2.294       .  S
C2566      O2604   1.269       .  A
C2566      O2572   1.272       .  A
C2566      C3752   1.489       .  S
O2567      C2574   1.274       .  A
H2568      C2581   1.081       .  S
C2569      O2583   1.236       .  S
C2569      O2584   1.272       .  A
C2569      H2594   1.081       .  S
O2570      C2593   1.267       .  A
O2571     Mg2585   2.161       .  S
O2572     Mg2602   2.294       .  S
C2573      O2586   1.271       .  A
C2573      O2578   1.276       .  A
C2573      C3822   1.493       .  S
C2574      O2601   1.273       .  A
Mg2575     O2582   2.135       .  S
Mg2575     O2583   2.158       .  S
Mg2575     O2576   2.289       .  S
Mg2575     O2577   2.301       .  S
Mg2575     O2604   2.246       .  S
O2577      C2581   1.270       .  A
O2578     Mg2585   2.316       .  S
O2579      C2598   1.274       .  A
O2580      C2600   1.274       .  A
O2580     Mg2596   2.293       .  S
O2582     Mg2596   2.138       .  S
O2582      C2593   1.233       .  S
O2583     Mg2602   2.155       .  S
O2584     Mg2596   2.310       .  S
Mg2585     O2601   2.266       .  S
O2586     Mg2602   2.260       .  S
H2587      C2592   1.081       .  S
O2588     Mg2596   2.135       .  S
O2588      C2591   1.234       .  S
H2589      C2591   1.081       .  S
H2590      C2593   1.081       .  S
O2595     Mg2602   2.305       .  S
C2598      C3766   1.486       .  S
O2599      C2600   1.271       .  A
C2600      C3780   1.494       .  S
C2605      C3825   1.486       .  S
C2605      C2606   1.419       .  A
C2605      C2610   1.403       .  A
C2606      C3738   1.480       .  S
C2606      C2607   1.405       .  A
C2607      H2612   1.084       .  S
C2607      C2608   1.398       .  A
C2608      C3724   1.480       .  S
C2608      C2609   1.409       .  A
C2609      C3710   1.478       .  S
C2609      C2610   1.398       .  A
C2610      H2611   1.085       .  S
C2613      C3696   1.488       .  S
C2613      C2614   1.413       .  A
C2613      C2618   1.402       .  A
C2614      C3811   1.483       .  S
C2614      C2615   1.402       .  A
C2615      H2620   1.084       .  S
C2615      C2616   1.404       .  A
C2616      C3671   1.485       .  S
C2616      C2617   1.418       .  A
C2617      C3682   1.486       .  S
C2617      C2618   1.407       .  A
C2618      H2619   1.084       .  S
O2621     Mg2623   2.143       .  S
O2621     Mg2629   2.151       .  S
O2621      C2656   1.233       .  S
C2622      O2635   1.236       .  S
C2622      O2659   1.270       .  A
C2622      H2661   1.081       .  S
Mg2623     O2652   2.171       .  S
Mg2623     O3945   2.320       .  S
Mg2623     O2663   2.251       .  S
Mg2623     O2634   2.301       .  S
O2624     Mg2666   2.151       .  S
O2624     Mg2649   2.156       .  S
O2624      C2645   1.235       .  S
O2625      C2656   1.268       .  A
O2625     Mg2649   2.296       .  S
C2626      O2628   1.276       .  A
C2626      O2640   1.276       .  A
O2627      C2655   1.271       .  A
O2627     Mg2629   2.306       .  S
O2628     Mg2660   2.295       .  S
Mg2629     O2635   2.151       .  S
Mg2629     O3921   2.269       .  S
Mg2629     O2631   2.300       .  S
C2630      O2668   1.272       .  A
C2630      C3615   1.494       .  S
O2631      C2638   1.275       .  A
H2632      C2645   1.081       .  S
C2633      O2647   1.233       .  S
C2633      O2648   1.268       .  A
C2633      H2658   1.081       .  S
O2634      C2657   1.270       .  A
O2635     Mg2649   2.171       .  S
O2636     Mg2666   2.293       .  S
C2637      O2650   1.270       .  A
C2637      O2642   1.276       .  A
C2637      C3626   1.494       .  S
C2638      O2665   1.274       .  A
C2638      C3640   1.493       .  S
Mg2639     O2646   2.165       .  S
Mg2639     O2647   2.148       .  S
Mg2639     O2640   2.304       .  S
Mg2639     O2641   2.312       .  S
O2641      C2645   1.271       .  A
O2642     Mg2649   2.312       .  S
O2643      C2662   1.272       .  A
O2643     Mg3907   2.269   1_545  S
O2644      C2664   1.276       .  A
O2644     Mg2660   2.310       .  S
O2646     Mg2660   2.177       .  S
O2646      C2657   1.235       .  S
O2647     Mg2666   2.153       .  S
O2648     Mg2660   2.302       .  S
Mg2649     O2665   2.275       .  S
O2650     Mg2666   2.259       .  S
H2651      C2656   1.081       .  S
O2652     Mg2660   2.174       .  S
O2652      C2655   1.236       .  S
H2653      C2655   1.081       .  S
H2654      C2657   1.081       .  S
O2659     Mg2666   2.298       .  S
C2662      O2667   1.275       .  A
C2662      C3598   1.491       .  S
O2663      C2664   1.271       .  A
C2664      C5019   1.484       .  S
O2667     Mg3901   2.305   1_545  S
O2669     Mg2671   2.146       .  S
O2669     Mg2677   2.152       .  S
O2669      C2704   1.236       .  S
C2670      O2683   1.236       .  S
C2670      O2707   1.272       .  A
C2670      H2709   1.081       .  S
Mg2671     O2700   2.162       .  S
Mg2671     O2715   2.290       .  S
Mg2671     O2711   2.262       .  S
Mg2671     O2682   2.296       .  S
O2672     Mg2714   2.139       .  S
O2672     Mg2697   2.143       .  S
O2672      C2693   1.234       .  S
O2673      C2704   1.271       .  A
O2673     Mg2697   2.307       .  S
C2674      O2676   1.270       .  A
C2674      O2688   1.275       .  A
C2674      C4977   1.490       .  S
O2675      C2703   1.269       .  A
O2675     Mg2677   2.300       .  S
O2676     Mg2708   2.241       .  S
Mg2677     O2683   2.146       .  S
Mg2677     O2691   2.251       .  S
Mg2677     O2679   2.283       .  S
C2678      O2716   1.272       .  A
C2678      O3962   1.277       .  A
C2678      C3531   1.488       .  S
O2679      C2686   1.270       .  A
H2680      C2693   1.081       .  S
C2681      O2695   1.234       .  S
C2681      O2696   1.269       .  A
C2681      H2706   1.081       .  S
O2682      C2705   1.268       .  A
O2683     Mg2697   2.144       .  S
O2684      C3956   1.275       .  A
O2684     Mg2714   2.291       .  S
C2685      O2698   1.272       .  A
C2685      O2690   1.270       .  A
C2685      C3556   1.494       .  S
C2686      O2713   1.269       .  A
C2686      C3570   1.487       .  S
Mg2687     O2694   2.145       .  S
Mg2687     O2695   2.163       .  S
Mg2687     O2688   2.313       .  S
Mg2687     O2689   2.299       .  S
Mg2687     O3994   2.266       .  S
O2689      C2693   1.269       .  A
O2690     Mg2697   2.292       .  S
O2691      C2710   1.269       .  A
O2692      C2712   1.272       .  A
O2692     Mg2708   2.280       .  S
O2694     Mg2708   2.155       .  S
O2694      C2705   1.234       .  S
O2695     Mg2714   2.152       .  S
O2696     Mg2708   2.298       .  S
Mg2697     O2713   2.256       .  S
O2698     Mg2714   2.283       .  S
H2699      C2704   1.081       .  S
O2700     Mg2708   2.142       .  S
O2700      C2703   1.234       .  S
H2701      C2703   1.081       .  S
H2702      C2705   1.081       .  S
O2707     Mg2714   2.313       .  S
C2710      O2715   1.271       .  A
C2710      C3542   1.487       .  S
O2711      C2712   1.271       .  A
C2712      C3587   1.488       .  S
O2716     Mg3965   2.251   1_545  S
C2717      C3584   1.473       .  S
C2717      C2718   1.411       .  A
C2717      C2722   1.394       .  A
C2718      C3657   1.491       .  S
C2718      C2719   1.411       .  A
C2719      H2724   1.084       .  S
C2719      C2720   1.414       .  A
C2720      C3503   1.493       .  S
C2720      C2721   1.415       .  A
C2721      C3514   1.477       .  S
C2721      C2722   1.396       .  A
C2722      H2723   1.085       .  S
O2725     Mg2727   2.153   1_554  S
O2725     Mg4011   2.154   1_545  S
O2725      C2760   1.234       .  S
C2726      O2739   1.234       .  S
C2726      O2763   1.269       .  A
C2726      H2765   1.081       .  S
Mg2727     O4034   2.152   1_545  S
Mg2727     O4049   2.280   1_545  S
Mg2727     O4045   2.282   1_545  S
Mg2727     O2738   2.304       .  S
O2728     Mg4048   2.157   1_545  S
O2728     Mg2753   2.145       .  S
O2728      C2749   1.234       .  S
O2729      C2760   1.269       .  A
O2729     Mg2753   2.300       .  S
C2730      O2732   1.270       .  A
C2730      O2744   1.273       .  A
C2730      C3486   1.476       .  S
O2731      C2759   1.270   1_554  A
O2731     Mg2733   2.308       .  S
O2732     Mg2764   2.252       .  S
Mg2733     O4003   2.154       .  S
Mg2733     O2739   2.161       .  S
Mg2733     O2747   2.271       .  S
Mg2733     O4013   2.302       .  S
C2734      O2772   1.273   1_545  A
C2734      O2740   1.275   1_556  A
C2734      C3447   1.497       .  S
O2735      C2742   1.275       .  A
O2735     Mg4011   2.300   1_545  S
H2736      C2749   1.081       .  S
C2737      O2751   1.234       .  S
C2737      O2752   1.269       .  A
C2737      H2762   1.081   1_556  S
O2738      C2761   1.270       .  A
O2739     Mg4031   2.160       .  S
O2740     Mg4048   2.297   1_545  S
C2741      O2754   1.273       .  A
C2741      O2746   1.273       .  A
C2741      C3685   1.498       .  S
C2742      O2769   1.269       .  A
C2742      C3727   1.491       .  S
Mg2743     O2750   2.168       .  S
Mg2743     O4029   2.156       .  S
Mg2743     O4022   2.281       .  S
Mg2743     O2745   2.300   1_565  S
Mg2743     O2772   2.291       .  S
O2744     Mg4021   2.280       .  S
O2745      C2749   1.269   1_556  A
O2746     Mg2753   2.295       .  S
O2747      C2766   1.271       .  A
O2748      C2768   1.274       .  A
O2748     Mg2764   2.304       .  S
O2750     Mg4042   2.166       .  S
O2750      C2761   1.235   1_565  S
O2751     Mg4021   2.162       .  S
O2751     Mg2770   2.148   1_556  S
O2752     Mg2764   2.299       .  S
Mg2753     O4017   2.166   1_545  S
Mg2753     O2769   2.247       .  S
O2754     Mg4048   2.282   1_545  S
H2755      C2760   1.081   1_556  S
O2756     Mg4005   2.153       .  S
O2756     Mg2764   2.146       .  S
O2756      C2759   1.235       .  S
H2757      C2759   1.081       .  S
H2758      C2761   1.081       .  S
O2763     Mg2770   2.302       .  S
Mg2764     O4028   2.167       .  S
C2766      O2771   1.274   1_554  A
C2766      C3458   1.490       .  S
O2767      C2768   1.274       .  A
O2767     Mg4005   2.292       .  S
C2768      C3475   1.497       .  S
Mg2770     O4006   2.159       .  S
Mg2770     O4018   2.286       .  S
Mg2770     O4032   2.274       .  S
O2771     Mg4005   2.288       .  S
O2773     Mg2775   2.131   1_556  S
O2773     Mg2781   2.160       .  S
O2773      C2808   1.234       .  S
C2774      O2787   1.235       .  S
C2774      O2811   1.270       .  A
C2774      H2813   1.081       .  S
Mg2775     O2804   2.153       .  S
Mg2775     O2819   2.277       .  S
Mg2775     O2815   2.263       .  S
Mg2775     O2786   2.302       .  S
O2776     Mg2818   2.154       .  S
O2776     Mg2801   2.136       .  S
O2776      C2797   1.233       .  S
O2777      C2808   1.268       .  A
O2777     Mg2801   2.293       .  S
C2778      O2780   1.266       .  A
C2778      O2792   1.274       .  A
C2778      C3713   1.479       .  S
O2779      C2807   1.268   1_556  A
O2779     Mg2781   2.294       .  S
O2780     Mg2812   2.229       .  S
Mg2781     O2787   2.149       .  S
Mg2781     O2795   2.276       .  S
Mg2781     O2783   2.296       .  S
C2782      O2820   1.274       .  A
C2782      O2788   1.274   1_554  A
C2782      C3391   1.493       .  S
O2783      C2790   1.274       .  A
H2784      C2797   1.081       .  S
C2785      O2799   1.234       .  S
C2785      O2800   1.268       .  A
C2785      H2810   1.081   1_554  S
O2786      C2809   1.270       .  A
O2787     Mg2801   2.153       .  S
O2788     Mg2818   2.288       .  S
C2789      O2802   1.269       .  A
C2789      O2794   1.271       .  A
C2789      C3433   1.485       .  S
C2790      O2817   1.267       .  A
C2790      C3419   1.487       .  S
Mg2791     O2798   2.155       .  S
Mg2791     O2799   2.157       .  S
Mg2791     O2792   2.295       .  S
Mg2791     O2793   2.297       .  S
Mg2791     O2820   2.281       .  S
O2793      C2797   1.268   1_554  A
O2794     Mg2801   2.268       .  S
O2795      C2814   1.274       .  A
O2796      C2816   1.269       .  A
O2796     Mg2812   2.277       .  S
O2798     Mg2812   2.159       .  S
O2798      C2809   1.235       .  S
O2799     Mg2818   2.134   1_554  S
O2800     Mg2812   2.294       .  S
Mg2801     O2817   2.235       .  S
O2802     Mg2818   2.257       .  S
H2803      C2808   1.081   1_554  S
O2804     Mg2812   2.131       .  S
O2804      C2807   1.234       .  S
H2805      C2807   1.081       .  S
H2806      C2809   1.081       .  S
O2811     Mg2818   2.302       .  S
C2814      O2819   1.272   1_556  A
C2814      C3402   1.489       .  S
O2815      C2816   1.271       .  A
C2816      C3517   1.487       .  S
O2821     Mg2823   2.163   1_556  S
O2821      C2856   1.234       .  S
C2822      O2835   1.236       .  S
C2822      O2859   1.270       .  A
C2822      H2861   1.081       .  S
Mg2823     O2834   2.299       .  S
O2824     Mg2849   2.162       .  S
O2824      C2845   1.235       .  S
O2825      C2856   1.268       .  A
O2825     Mg2849   2.299       .  S
C2826      O2828   1.278       .  A
C2826      O2840   1.276       .  A
C2826      C3500   1.494       .  S
O2827      C2855   1.272   1_556  A
O2827     Mg2829   2.313       .  S
O2828     Mg2860   2.312       .  S
Mg2829     O2835   2.154       .  S
Mg2829     O2843   2.277       .  S
C2830      O2868   1.274       .  A
C2830      O2836   1.273   1_554  A
C2830      C3346   1.494       .  S
O2831      C2838   1.277       .  A
H2832      C2845   1.081       .  S
C2833      O2847   1.234       .  S
C2833      O2848   1.269       .  A
C2833      H2858   1.081   1_554  S
O2834      C2857   1.270       .  A
C2837      O2850   1.272       .  A
C2837      O2842   1.276       .  A
C2837      C3363   1.491       .  S
C2838      O2865   1.275       .  A
C2838      C3377   1.496       .  S
Mg2839     O2846   2.157       .  S
Mg2839     O2841   2.306       .  S
Mg2839     O2868   2.279       .  S
O2841      C2845   1.271   1_554  A
O2842     Mg2849   2.307       .  S
O2843      C2862   1.272       .  A
O2844      C2864   1.279       .  A
O2844     Mg2860   2.325       .  S
O2846      C2857   1.235       .  S
O2847     Mg2866   2.162   1_554  S
O2848     Mg2860   2.300       .  S
Mg2849     O2865   2.293       .  S
H2851      C2856   1.081   1_554  S
O2852     Mg2860   2.175       .  S
O2852      C2855   1.236       .  S
H2853      C2855   1.081       .  S
H2854      C2857   1.081       .  S
O2859     Mg2866   2.295       .  S
C2862      O2867   1.275   1_556  A
C2862      C3335   1.496       .  S
O2863      C2864   1.272       .  A
C2864      C3668   1.496       .  S
O2869     Mg2871   2.150       .  S
O2869     Mg2877   2.168       .  S
O2869      C2904   1.235       .  S
C2870      O2883   1.235       .  S
C2870      O2907   1.269       .  A
C2870      H2909   1.081       .  S
Mg2871     O2900   2.151       .  S
Mg2871     O2915   2.279   1_545  S
Mg2871     O2911   2.268       .  S
Mg2871     O2882   2.303       .  S
O2872     Mg2914   2.153       .  S
O2872     Mg2897   2.141       .  S
O2872      C2893   1.234       .  S
O2873      C2904   1.268       .  A
O2873     Mg2897   2.293       .  S
C2874      O2876   1.271       .  A
C2874      O2888   1.271       .  A
C2874      C3318   1.484       .  S
O2875      C2903   1.270       .  A
O2875     Mg2877   2.305       .  S
O2876     Mg2908   2.258       .  S
Mg2877     O2883   2.137       .  S
Mg2877     O4169   2.257   1_545  S
Mg2877     O2879   2.328       .  S
C2878      O2916   1.270       .  A
C2878      O2884   1.274       .  A
C2878      C3248   1.490       .  S
O2879      C2886   1.278       .  A
H2880      C2893   1.081       .  S
C2881      O2895   1.235       .  S
C2881      O2896   1.269       .  A
C2881      H2906   1.081       .  S
O2882      C2905   1.270       .  A
O2883     Mg2897   2.152       .  S
O2884     Mg2914   2.296       .  S
C2885      O2898   1.270       .  A
C2885      O2890   1.271       .  A
C2885      C3290   1.484       .  S
C2886      O2913   1.270       .  A
C2886      C4557   1.492   1_545  S
Mg2887     O2894   2.148       .  S
Mg2887     O2895   2.154       .  S
Mg2887     O2888   2.282       .  S
Mg2887     O2889   2.294       .  S
Mg2887     O2916   2.263       .  S
O2889      C2893   1.268       .  A
O2890     Mg2897   2.273       .  S
O2891      C2910   1.273       .  A
O2891     Mg4155   2.270       .  S
O2892      C2912   1.275       .  A
O2892     Mg2908   2.299       .  S
O2894     Mg2908   2.149       .  S
O2894      C2905   1.235       .  S
O2895     Mg2914   2.139       .  S
O2896     Mg2908   2.303       .  S
Mg2897     O2913   2.250       .  S
O2898     Mg2914   2.257       .  S
H2899      C2904   1.081   1_565  S
O2900     Mg2908   2.147       .  S
O2900      C2903   1.234       .  S
H2901      C2903   1.081       .  S
H2902      C2905   1.081       .  S
O2907     Mg2914   2.299       .  S
C2910      O4193   1.274       .  A
C2910      C3265   1.489       .  S
O2911      C2912   1.270       .  A
C2912      C3304   1.495       .  S
O2915      C4188   1.273       .  A
C2917      C3374   1.495       .  S
C2917      C2918   1.412       .  A
C2917      C2922   1.412       .  A
C2918      C3430   1.475       .  S
C2918      C2919   1.394       .  A
C2919      H2924   1.085       .  S
C2919      C2920   1.393       .  A
C2920      C3293   1.474       .  S
C2920      C2921   1.417       .  A
C2921      C3234   1.496       .  S
C2921      C2922   1.414       .  A
C2922      H2923   1.083       .  S
C2925      C3472   1.488       .  S
C2925      C2926   1.422       .  A
C2925      C2930   1.406       .  A
C2926      C3360   1.487       .  S
C2926      C2927   1.407       .  A
C2927      H2932   1.084       .  S
C2927      C2928   1.400       .  A
C2928      C3220   1.479       .  S
C2928      C2929   1.408       .  A
C2929      C3276   1.482       .  S
C2929      C2930   1.401       .  A
C2930      H2931   1.084       .  S
O2933     Mg2935   2.146       .  S
O2933     Mg2941   2.156       .  S
O2933      C2968   1.234       .  S
C2934      O2947   1.234       .  S
C2934      O2971   1.269       .  A
C2934      H2973   1.081       .  S
Mg2935     O2964   2.156       .  S
Mg2935     O2979   2.281   1_655  S
Mg2935     O2975   2.257       .  S
Mg2935     O2946   2.293       .  S
O2936     Mg2978   2.164       .  S
O2936     Mg2961   2.169       .  S
O2936      C2957   1.236       .  S
O2937      C2968   1.269       .  A
O2937     Mg2961   2.299       .  S
C2938      O2940   1.270       .  A
C2938      O2952   1.276       .  A
C2938      C3195   1.495       .  S
O2939      C2967   1.269       .  A
O2939     Mg2941   2.298       .  S
O2940     Mg2972   2.259       .  S
Mg2941     O2947   2.153       .  S
Mg2941     O2943   2.296       .  S
C2942      O2980   1.270       .  A
C2942      O2948   1.275       .  A
C2942      C3150   1.493       .  S
O2943      C2950   1.275       .  A
H2944      C2957   1.081       .  S
C2945      O2959   1.234       .  S
C2945      O2960   1.269       .  A
C2945      H2970   1.081       .  S
O2946      C2969   1.268       .  A
O2947     Mg2961   2.161       .  S
O2948     Mg4256   2.308       .  S
C2949      O2962   1.272       .  A
C2949      O2954   1.275       .  A
C2949      C4459   1.491   1_545  S
C2950      O2977   1.276       .  A
Mg2951     O2958   2.140       .  S
Mg2951     O2959   2.157       .  S
Mg2951     O2952   2.306       .  S
Mg2951     O2953   2.308       .  S
Mg2951     O4258   2.257   1_545  S
O2953      C2957   1.271       .  A
O2954     Mg2961   2.309       .  S
O2955      C2974   1.273       .  A
O2956      C2976   1.275       .  A
O2956     Mg2972   2.307       .  S
O2958     Mg2972   2.163       .  S
O2958      C2969   1.235       .  S
O2959     Mg2978   2.151       .  S
O2960     Mg2972   2.300       .  S
Mg2961     O2977   2.293       .  S
O2962     Mg2978   2.258       .  S
H2963      C2968   1.081       .  S
O2964     Mg2972   2.142       .  S
O2964      C2967   1.235       .  S
H2965      C2967   1.081       .  S
H2966      C2969   1.081       .  S
O2971     Mg2978   2.300       .  S
C2974      C3164   1.497       .  S
O2975      C2976   1.269       .  A
C2976      C3209   1.494       .  S
Mg2978     O4226   2.308   1_545  S
O2980     Mg4229   2.256       .  S
O2981     Mg2983   2.145       .  S
O2981     Mg2989   2.161       .  S
O2981      C3016   1.235       .  S
C2982      O2995   1.235       .  S
C2982      O3019   1.269       .  A
C2982      H3021   1.081       .  S
Mg2983     O3012   2.167       .  S
Mg2983     O3027   2.304       .  S
Mg2983     O3023   2.270       .  S
Mg2983     O2994   2.301       .  S
O2984     Mg3026   2.152       .  S
O2984     Mg3009   2.148       .  S
O2984      C3005   1.236       .  S
O2985      C3016   1.269       .  A
O2985     Mg3009   2.301       .  S
C2986      O2988   1.271       .  A
C2986      O3000   1.277       .  A
O2987      C3015   1.269       .  A
O2987     Mg2989   2.298       .  S
O2988     Mg3020   2.264       .  S
Mg2989     O2995   2.141       .  S
Mg2989     O3003   2.265       .  S
Mg2989     O2991   2.282       .  S
C2990      O3028   1.274       .  A
C2990      C3080   1.490       .  S
O2991      C2998   1.272       .  A
H2992      C3005   1.081       .  S
C2993      O3007   1.234       .  S
C2993      O3008   1.270       .  A
C2993      H3018   1.081       .  S
O2994      C3017   1.269       .  A
O2995     Mg3009   2.151       .  S
O2996     Mg3026   2.273   1_455  S
C2997      O3010   1.272       .  A
C2997      O3002   1.273       .  A
C2997      C3136   1.494       .  S
C2998      O3025   1.271       .  A
C2998      C3125   1.486       .  S
Mg2999     O3006   2.155       .  S
Mg2999     O3007   2.152       .  S
Mg2999     O3000   2.311       .  S
Mg2999     O3001   2.310       .  S
O3001      C3005   1.271       .  A
O3002     Mg3009   2.286       .  S
O3003      C3022   1.270       .  A
O3004      C3024   1.275       .  A
O3004     Mg3020   2.303       .  S
O3006     Mg3020   2.158       .  S
O3006      C3017   1.234       .  S
O3007     Mg3026   2.161       .  S
O3008     Mg3020   2.306       .  S
Mg3009     O3025   2.269       .  S
O3010     Mg3026   2.284       .  S
H3011      C3016   1.081       .  S
O3012     Mg3020   2.157       .  S
O3012      C3015   1.235       .  S
H3013      C3015   1.081       .  S
H3014      C3017   1.081       .  S
O3019     Mg3026   2.299       .  S
C3022      O3027   1.276       .  A
C3022      C3097   1.494       .  S
O3023      C3024   1.272       .  A
C3024      C3111   1.494       .  S
C3029      C3416   1.474       .  S
C3029      C3030   1.407       .  A
C3029      C3034   1.398       .  A
C3030      C3489   1.476       .  S
C3030      C3031   1.396       .  A
C3031      H3036   1.084       .  S
C3031      C3032   1.402       .  A
C3032      C3178   1.482       .  S
C3032      C3033   1.419       .  A
C3033      C3108   1.483       .  S
C3033      C3034   1.403       .  A
C3034      H3035   1.084       .  S
C3037      C3783   1.478       .  S
C3037      C3038   1.416       .  A
C3037      C3042   1.400       .  A
C3038      C3629   1.486       .  S
C3038      C3039   1.403       .  A
C3039      H3044   1.085       .  S
C3040      C3139   1.481       .  S
C3040      C3041   1.416       .  A
C3041      C3206   1.484       .  S
C3042      H3043   1.085       .  S
C3045      C3797   1.476       .  S
C3045      C3046   1.408       .  A
C3045      C3050   1.397       .  A
C3046      C3573   1.475       .  S
C3046      C3047   1.402       .  A
C3047      H3052   1.084       .  S
C3047      C3048   1.404       .  A
C3048      C3122   1.487       .  S
C3048      C3049   1.415       .  A
C3049      C3321   1.474       .  S
C3049      C3050   1.398       .  A
C3050      H3051   1.084       .  S
C3053      C3643   1.484       .  S
C3053      C3054   1.413       .  A
C3053      C3058   1.405       .  A
C3054      C3559   1.483       .  S
C3054      C3055   1.401       .  A
C3055      H3060   1.084       .  S
C3055      C4334   1.405       .  A
C3056      C3192   1.482       .  S
C3056      C4333   1.405       .  A
C3056      C3057   1.414   1_545  A
C3057      C3307   1.482   1_565  S
C3057      C4336   1.401       .  A
C3058      H3059   1.084       .  S
C3058      C4335   1.401       .  A
C3061      C3349   1.492       .  S
C3061      C3062   1.413       .  A
C3062      C3461   1.483       .  S
C3062      C4341   1.411       .  A
C3063      C3388   1.487       .  S
C3063      C4340   1.413       .  A
C3063      C3064   1.414   1_554  A
C3065      C4722   1.490       .  S
C3065      C3066   1.417       .  A
C3066      C3405   1.484       .  S
C3067      C3769   1.493       .  S
C3067      C3068   1.419       .  A
C3067      C3072   1.414       .  A
C3068      C3528   1.483       .  S
C3068      C3069   1.415       .  A
C3069      C3601   1.493       .  S
C3069      C3070   1.409       .  A
C3070      C3755   1.485       .  S
C3070      C3071   1.413       .  A
C3071      C3545   1.481       .  S
C3071      C3072   1.413       .  A
C3072      C3612   1.494       .  S
C3073      C3094   1.490       .  S
C3073      C3074   1.415       .  A
C3073      C3078   1.417       .  A
C3074      C3153   1.493       .  S
C3074      C3075   1.411       .  A
C3075      C3262   1.481       .  S
C3075      C3076   1.412       .  A
C3076      C3083   1.488       .  S
C3076      C3077   1.413       .  A
C3077      C3167   1.492       .  S
C3077      C3078   1.414       .  A
C3078      C3251   1.483       .  S
C3079      H3086   1.083       .  S
C3079      C3080   1.406       .  A
C3079      C3084   1.404       .  A
C3080      C3081   1.418       .  A
C3081      C3082   1.400       .  A
C3081      N3088   1.433       .  S
C3082      H3087   1.083       .  S
C3082      C3083   1.398       .  A
C3083      C3084   1.416       .  A
C3084      N3085   1.438       .  S
N3085      H3089   1.045       .  S
N3085      H3090   1.044       .  S
N3088      H3091   1.046       .  S
N3088      H3092   1.046       .  S
C3093      H3100   1.083       .  S
C3093      C3094   1.397       .  A
C3093      C3098   1.398       .  A
C3094      C3095   1.415       .  A
C3095      C3096   1.407       .  A
C3095      N3102   1.438       .  S
C3096      H3101   1.083       .  S
C3096      C3097   1.411       .  A
C3097      C3098   1.413       .  A
C3098      N3099   1.433       .  S
N3099      H3103   1.046       .  S
N3099      H3104   1.046       .  S
N3102      H3105   1.043       .  S
N3102      H3106   1.046       .  S
C3107      H3114   1.084       .  S
C3107      C3108   1.396       .  A
C3107      C3112   1.395       .  A
C3108      C3109   1.410       .  A
C3109      C3110   1.409       .  A
C3109      N3116   1.438       .  S
C3110      H3115   1.083       .  S
C3110      C3111   1.409       .  A
C3111      C3112   1.420       .  A
C3112      N3113   1.427       .  S
N3113      H3117   1.045       .  S
N3113      H3118   1.045       .  S
N3116      H3119   1.045       .  S
N3116      H3120   1.046       .  S
C3121      H3128   1.082       .  S
C3121      C3122   1.401       .  A
C3121      C3126   1.397       .  A
C3122      C3123   1.410       .  A
C3123      C3124   1.409       .  A
C3123      N3130   1.438       .  S
C3124      H3129   1.083       .  S
C3124      C3125   1.409       .  A
C3125      C3126   1.412       .  A
C3126      N3127   1.433       .  S
N3127      H3131   1.046       .  S
N3127      H3132   1.045       .  S
N3130      H3133   1.045       .  S
N3130      H3134   1.045       .  S
C3135      H3142   1.083       .  S
C3135      C3136   1.410       .  A
C3135      C3140   1.400       .  A
C3136      C3137   1.418   1_655  A
C3137      C3138   1.411       .  A
C3138      C3139   1.403   1_455  A
C3139      C3140   1.402       .  A
C3140      N3141   1.432       .  S
N3141      H3145   1.046       .  S
N3141      H3146   1.046       .  S
N3144      H3147   1.046       .  S
N3144      H3148   1.046       .  S
C3149      H3156   1.084       .  S
C3149      C3150   1.409       .  A
C3149      C3154   1.404       .  A
C3150      C3151   1.415       .  A
C3151      C3152   1.400       .  A
C3151      N3158   1.432       .  S
C3152      H3157   1.084       .  S
C3152      C3153   1.401       .  A
C3153      C3154   1.416       .  A
C3154      N3155   1.438       .  S
N3155      H3159   1.046       .  S
N3155      H3160   1.042       .  S
N3158      H3161   1.046       .  S
N3158      H3162   1.046       .  S
C3163      H3170   1.083       .  S
C3163      C3164   1.410       .  A
C3163      C3168   1.399       .  A
C3164      C3165   1.417       .  A
C3165      C3166   1.409       .  A
C3165      N3172   1.437       .  S
C3166      H3171   1.083       .  S
C3166      C3167   1.402       .  A
C3167      C3168   1.413       .  A
C3168      N3169   1.439       .  S
N3169      H3173   1.045       .  S
N3169      H3174   1.043       .  S
N3172      H3175   1.046       .  S
N3172      H3176   1.046       .  S
C3177      H3184   1.083       .  S
C3177      C3178   1.399       .  A
C3177      C3182   1.397       .  A
C3178      C3179   1.410       .  A
C3179      C3180   1.407       .  A
C3179      N3186   1.438       .  S
C3180      H3185   1.084       .  S
C3180      C3181   1.407       .  A
C3181      C4227   1.486       .  S
C3181      C3182   1.421       .  A
C3182      N4461   1.433       .  S
N3183      C4460   1.433   1_545  S
N3183      H4465   1.045       .  S
N3183      H3188   1.045       .  S
N3186      H3189   1.045       .  S
N3186      H3190   1.046       .  S
H3187      N4461   1.045       .  S
C3191      H3198   1.084       .  S
C3191      C3192   1.399       .  A
C3191      C3196   1.400       .  A
C3192      C3193   1.405       .  A
C3193      C3194   1.402       .  A
C3193      N4478   1.432   1_545  S
C3194      H3199   1.084       .  S
C3194      C3195   1.411       .  A
C3195      C3196   1.424       .  A
C3196      N3197   1.432       .  S
N3197      H3201   1.045       .  S
N3197      H3202   1.045       .  S
N3200      C4471   1.439       .  S
N3200      H3203   1.044       .  S
N3200      H3204   1.046       .  S
C3205      H3212   1.084   1_655  S
C3205      C3206   1.399       .  A
C3205      C3210   1.398       .  A
C3206      C3207   1.410       .  A
C3207      C3208   1.408       .  A
C3207      N3214   1.438       .  S
C3208      H3213   1.083       .  S
C3208      C3209   1.410       .  A
C3209      C3210   1.424       .  A
C3210      N3211   1.433   1_655  S
N3211      H3215   1.045       .  S
N3211      H3216   1.045       .  S
N3214      H3217   1.045       .  S
N3214      H3218   1.046       .  S
C3219      H3226   1.084       .  S
C3219      C3220   1.400       .  A
C3219      C3224   1.403       .  A
C3220      C3221   1.403       .  A
C3221      C3222   1.402       .  A
C3221      N3228   1.432       .  S
C3222      H3227   1.083       .  S
C3222      C3223   1.410       .  A
C3223      C3224   1.416       .  A
C3224      N3225   1.432       .  S
N3225      H3229   1.046       .  S
N3225      H3230   1.046       .  S
N3228      H3231   1.045       .  S
N3228      H3232   1.046       .  S
C3233      H3240   1.081       .  S
C3233      C3234   1.403       .  A
C3233      C3238   1.407       .  A
C3234      C3235   1.413       .  A
C3236      H3241   1.083   1_455  S
C3237      C3238   1.416       .  A
C3238      N3239   1.438       .  S
N3239      H3243   1.046       .  S
N3239      H3244   1.046       .  S
N3242      H3246   1.045   1_455  S
C3247      H3254   1.084       .  S
C3247      C3248   1.409       .  A
C3247      C3252   1.399       .  A
C3248      C3249   1.419       .  A
C3249      C3250   1.398       .  A
C3249      N3256   1.431       .  S
C3250      H3255   1.084       .  S
C3250      C3251   1.401       .  A
C3251      C3252   1.413       .  A
C3252      N3253   1.439       .  S
N3253      H3257   1.045       .  S
N3253      H3258   1.043       .  S
N3256      H3259   1.046       .  S
N3256      H3260   1.043       .  S
C3261      H3268   1.084       .  S
C3261      C3262   1.402       .  A
C3261      C3266   1.406       .  A
C3262      C3263   1.411       .  A
C3263      C3264   1.396       .  A
C3263      N3270   1.439       .  S
C3264      H3269   1.083       .  S
C3264      C3265   1.409       .  A
C3265      C3266   1.416       .  A
C3266      N3267   1.437       .  S
N3267      H3271   1.046       .  S
N3267      H3272   1.046       .  S
N3270      H3273   1.043       .  S
N3270      H3274   1.046       .  S
C3275      H3282   1.083       .  S
C3275      C3276   1.401       .  A
C3275      C4558   1.404       .  A
C3276      C3277   1.407       .  A
C3277      C3278   1.405       .  A
C3277      N3284   1.438       .  S
C3278      H3283   1.083       .  S
C3278      C3279   1.407       .  A
C3279      C4164   1.486       .  S
C3279      C4558   1.416       .  A
C3280      C4553   1.405       .  A
C3280      C4557   1.416       .  A
C3280      N3281   1.438   1_565  S
N3281      H3285   1.046       .  S
N3281      H3286   1.046   1_545  S
N3284      H3287   1.045       .  S
N3284      H3288   1.046       .  S
C3289      H3296   1.084       .  S
C3289      C3290   1.410       .  A
C3289      C3294   1.394       .  A
C3290      C3291   1.414       .  A
C3291      C3292   1.402       .  A
C3291      N3298   1.432       .  S
C3292      H3297   1.084       .  S
C3292      C3293   1.401       .  A
C3293      C3294   1.406       .  A
C3294      N3295   1.432       .  S
N3295      H3299   1.043       .  S
N3295      H3300   1.046       .  S
N3298      H3301   1.046       .  S
N3298      H3302   1.046       .  S
C3303      H3310   1.084       .  S
C3303      C3304   1.410       .  A
C3303      C3308   1.399       .  A
C3304      C3305   1.422   1_545  A
C3305      C3306   1.403       .  A
C3305      N4590   1.432       .  S
C3306      H4589   1.084       .  S
C3306      C3307   1.401   1_565  A
C3307      C3308   1.412       .  A
C3308      N3309   1.439       .  S
N3309      H3313   1.045       .  S
N3309      H3314   1.043       .  S
H3311      C4584   1.082       .  S
N3312      C4583   1.432       .  S
N3312      H3315   1.045       .  S
N3312      H3316   1.045       .  S
C3317      H3324   1.084       .  S
C3317      C3318   1.406       .  A
C3317      C3322   1.399       .  A
C3318      C3319   1.419       .  A
C3319      C3320   1.401       .  A
C3319      N3326   1.438       .  S
C3320      H3325   1.084       .  S
C3320      C3321   1.397       .  A
C3321      C3322   1.412       .  A
C3322      N3323   1.438       .  S
N3323      H3327   1.045       .  S
N3323      H3328   1.044       .  S
N3326      H3329   1.046       .  S
N3326      H3330   1.046       .  S
C3331      H3338   1.084       .  S
C3331      C3336   1.403       .  A
C3332      C3333   1.415   1_556  A
C3333      C3334   1.401       .  A
C3333      N3340   1.438       .  S
C3334      H3339   1.084       .  S
C3334      C3335   1.410   1_554  A
C3336      N3337   1.432       .  S
N3337      H3341   1.046       .  S
N3337      H3342   1.046       .  S
N3340      H3343   1.042       .  S
N3340      H3344   1.046       .  S
C3345      H3352   1.083       .  S
C3345      C3350   1.405       .  A
C3346      C3347   1.418   1_554  A
C3347      C3348   1.401       .  A
C3347      N3354   1.433       .  S
C3348      H3353   1.084       .  S
C3348      C3349   1.398   1_556  A
C3350      N3351   1.439       .  S
N3351      H3355   1.045       .  S
N3351      H3356   1.044   1_455  S
N3354      H3357   1.046       .  S
N3354      H3358   1.046       .  S
C3359      H3366   1.084       .  S
C3359      C3360   1.404       .  A
C3359      C3364   1.401       .  A
C3360      C3361   1.409       .  A
C3361      C3362   1.408       .  A
C3361      N3368   1.438       .  S
C3362      H3367   1.084       .  S
C3362      C3363   1.409       .  A
C3363      C3364   1.417       .  A
N3365      H3369   1.044       .  S
N3365      H3370   1.046       .  S
N3368      H3371   1.045       .  S
N3368      H3372   1.046       .  S
C3373      H3380   1.084       .  S
C3373      C3374   1.407       .  A
C3373      C3378   1.412       .  A
C3374      C3375   1.411       .  A
C3375      C3376   1.403       .  A
C3375      N3382   1.433       .  S
C3376      H3381   1.084       .  S
C3376      C3377   1.410       .  A
C3377      C3378   1.415       .  A
C3378      N3379   1.437       .  S
N3379      H3383   1.046       .  S
N3379      H3384   1.046       .  S
N3382      H3385   1.045       .  S
C3387      H3394   1.084       .  S
C3387      C3388   1.402       .  A
C3387      C3392   1.406       .  A
C3388      C3389   1.404   1_554  A
C3389      C3390   1.401       .  A
C3389      N3396   1.432       .  S
C3390      H3395   1.083       .  S
C3390      C3391   1.410   1_556  A
C3391      C3392   1.416       .  A
C3392      N3393   1.432       .  S
N3393      H3397   1.046       .  S
N3393      H3398   1.046       .  S
N3396      H3399   1.045       .  S
N3396      H3400   1.045       .  S
C3401      H3408   1.083       .  S
C3401      C3402   1.409       .  A
C3401      C3406   1.405       .  A
C3402      C3403   1.418   1_556  A
C3403      C3404   1.398       .  A
C3403      N3410   1.433       .  S
C3404      H3409   1.081       .  S
C3404      C3405   1.397   1_554  A
C3405      C3406   1.406       .  A
C3406      N3407   1.432       .  S
N3407      H3411   1.045       .  S
N3407      H3412   1.045       .  S
N3410      H3413   1.046       .  S
N3410      H3414   1.046       .  S
C3415      H3422   1.084       .  S
C3415      C3416   1.397       .  A
C3415      C3420   1.403       .  A
C3416      C3417   1.405       .  A
C3417      C3418   1.402       .  A
C3417      N3424   1.437       .  S
C3418      H3423   1.083       .  S
C3418      C3419   1.408       .  A
C3419      C3420   1.421       .  A
C3420      N3421   1.438       .  S
N3421      H3425   1.046       .  S
N3421      H3426   1.046       .  S
N3424      H3427   1.045       .  S
N3424      H3428   1.046       .  S
C3429      H3436   1.083       .  S
C3429      C3430   1.400       .  A
C3429      C3434   1.396       .  A
C3430      C3431   1.412       .  A
C3431      C3432   1.397       .  A
C3431      N3438   1.440       .  S
C3432      H3437   1.084       .  S
C3432      C3433   1.409       .  A
C3433      C3434   1.419       .  A
C3434      N3435   1.433       .  S
N3435      H3439   1.045       .  S
N3435      H3440   1.045       .  S
N3438      H3441   1.043       .  S
N3438      H3442   1.046       .  S
C3443      H3450   1.083       .  S
C3443      C3444   1.404       .  A
C3443      C3448   1.412   1_565  A
C3444      C4343   1.493       .  S
C3444      C4723   1.413   1_556  A
C3445      C4722   1.413   1_554  A
C3445      C3446   1.399       .  A
C3445      N3452   1.439       .  S
C3446      H3451   1.084       .  S
C3446      C4725   1.410   1_554  A
C3447      C4724   1.409   1_546  A
C3447      C3448   1.417       .  A
C3448      N3449   1.437       .  S
N3449      H3453   1.046       .  S
N3449      H3454   1.045       .  S
N3452      H3455   1.043       .  S
N3452      H3456   1.045       .  S
C3457      H3464   1.084       .  S
C3457      C4736   1.409   1_556  A
C3457      C3462   1.398   1_565  A
C3458      C4735   1.409   1_554  A
C3458      C3459   1.417       .  A
C3459      C3460   1.407       .  A
C3459      N3466   1.432       .  S
C3460      H3465   1.083       .  S
C3460      C3461   1.401       .  A
C3461      C4740   1.403   1_554  A
C3462      C4739   1.402   1_556  A
C3462      N3463   1.432       .  S
N3463      H3467   1.045   1_545  S
N3463      H3468   1.045       .  S
N3466      H3469   1.045       .  S
N3466      H3470   1.046       .  S
C3471      H3478   1.084       .  S
C3471      C3472   1.402       .  A
C3471      C3476   1.406       .  A
C3472      C3473   1.407       .  A
C3473      C3474   1.408       .  A
C3473      N3480   1.432       .  S
C3474      H4757   1.083       .  S
C3474      C3475   1.410       .  A
C3475      C3476   1.417       .  A
C3476      N3477   1.433       .  S
N3477      H3481   1.046       .  S
N3477      H3482   1.046       .  S
H3479      C4752   1.084       .  S
N3480      H3483   1.046       .  S
N3480      H4762   1.046       .  S
H3484      N4758   1.046       .  S
C3485      H3492   1.084       .  S
C3485      C3486   1.407       .  A
C3485      C3490   1.398       .  A
C3486      C3487   1.410       .  A
C3487      C3488   1.403       .  A
C3487      N3494   1.432       .  S
C3488      H3493   1.084       .  S
C3488      C3489   1.403       .  A
C3489      C3490   1.402       .  A
C3490      N3491   1.433       .  S
N3491      H3495   1.045       .  S
N3491      H3496   1.045       .  S
N3494      H3497   1.046       .  S
N3494      H3498   1.046       .  S
C3499      H3506   1.084       .  S
C3499      C3500   1.410       .  A
C3499      C3504   1.405       .  A
C3500      C3501   1.414       .  A
C3501      C3502   1.414       .  A
C3501      N3508   1.437       .  S
C3502      H3507   1.084       .  S
C3502      C3503   1.408       .  A
C3503      C3504   1.404       .  A
C3504      N3505   1.432       .  S
N3505      H3509   1.046       .  S
N3505      H3510   1.045       .  S
N3508      H3511   1.046       .  S
N3508      H3512   1.046       .  S
C3513      H3520   1.084       .  S
C3513      C3514   1.398       .  A
C3513      C3518   1.395       .  A
C3514      C3515   1.407       .  A
C3515      C3516   1.405       .  A
C3515      N3522   1.437       .  S
C3516      H3521   1.083       .  S
C3516      C3517   1.409       .  A
C3517      C3518   1.423       .  A
C3518      N3519   1.433       .  S
N3519      H3523   1.044       .  S
N3519      H3524   1.045       .  S
N3522      H3525   1.046       .  S
N3522      H3526   1.045       .  S
C3527      H3534   1.084       .  S
C3527      C3528   1.400       .  A
C3527      C3532   1.403       .  A
C3528      C3529   1.416       .  A
C3529      C3530   1.397       .  A
C3529      N3536   1.439       .  S
C3530      H3535   1.084       .  S
C3530      C3531   1.407       .  A
C3531      C3532   1.418       .  A
C3532      N3533   1.438       .  S
N3533      H3537   1.046       .  S
N3533      H3538   1.046       .  S
N3536      H3539   1.042       .  S
N3536      H3540   1.046       .  S
C3541      H3548   1.084       .  S
C3541      C3542   1.406       .  A
C3541      C3546   1.401       .  A
C3542      C3543   1.421       .  A
C3543      C3544   1.394       .  A
C3543      N3550   1.430       .  S
C3544      H3549   1.084       .  S
C3544      C3545   1.396       .  A
C3545      C3546   1.415       .  A
C3546      N3547   1.437       .  S
N3547      H3551   1.046       .  S
N3547      H3552   1.042       .  S
N3550      H3553   1.043       .  S
N3550      H3554   1.045       .  S
C3555      H3562   1.084       .  S
C3555      C3556   1.408       .  A
C3555      C3560   1.406       .  A
C3556      C3557   1.424       .  A
C3557      C3558   1.396       .  A
C3557      N3564   1.433       .  S
C3558      H3563   1.085       .  S
C3558      C3559   1.398       .  A
C3559      C3560   1.416       .  A
C3560      N3561   1.439       .  S
N3561      H3565   1.046       .  S
N3561      H3566   1.043       .  S
N3564      H3567   1.045       .  S
N3564      H3568   1.045       .  S
C3569      H3576   1.084       .  S
C3569      C3570   1.407       .  A
C3569      C3574   1.401       .  A
C3570      C3571   1.417       .  A
C3571      C3572   1.399       .  A
C3571      N3578   1.433       .  S
C3572      H3577   1.084       .  S
C3572      C3573   1.398       .  A
C3573      C3574   1.414       .  A
C3574      N3575   1.439       .  S
N3575      H3579   1.046       .  S
N3575      H3580   1.043       .  S
N3578      H3581   1.046       .  S
N3578      H3582   1.046       .  S
C3583      H3590   1.083       .  S
C3583      C3584   1.397       .  A
C3583      C3588   1.400       .  A
C3584      C3585   1.402       .  A
C3585      C3586   1.401       .  A
C3585      N3592   1.432       .  S
C3586      H3591   1.083       .  S
C3586      C3587   1.410       .  A
C3587      C3588   1.416       .  A
C3588      N3589   1.430       .  S
N3589      H3593   1.046       .  S
N3589      H3594   1.046       .  S
N3592      H3595   1.046       .  S
N3592      H3596   1.046       .  S
C3597      H3604   1.083       .  S
C3597      C3598   1.410       .  A
C3597      C3602   1.403       .  A
C3598      C3599   1.414       .  A
C3599      C3600   1.404       .  A
C3599      N3606   1.432       .  S
C3600      H3605   1.081       .  S
C3600      C3601   1.402       .  A
C3601      C3602   1.404       .  A
C3602      N3603   1.432       .  S
N3603      H3607   1.045       .  S
N3603      H3608   1.046       .  S
N3606      H3609   1.046       .  S
N3606      H3610   1.046       .  S
C3611      H3618   1.084       .  S
C3611      C3612   1.403       .  A
C3611      C3616   1.408       .  A
C3612      C3613   1.414       .  A
C3613      C3614   1.399       .  A
C3613      N3620   1.438       .  S
C3614      H3619   1.083       .  S
C3614      C3615   1.409       .  A
C3615      C3616   1.417       .  A
C3616      N3617   1.438       .  S
N3617      H3621   1.046       .  S
N3617      H3622   1.046       .  S
N3620      H3623   1.041       .  S
N3620      H3624   1.046       .  S
C3625      H3632   1.084       .  S
C3625      C3626   1.408       .  A
C3625      C3630   1.405       .  A
C3626      C3627   1.419       .  A
C3627      C3628   1.405       .  A
C3627      N3634   1.432       .  S
C3628      H3633   1.083       .  S
C3628      C3629   1.400       .  A
C3629      C3630   1.408       .  A
C3630      N3631   1.432       .  S
N3631      H3635   1.046       .  S
N3631      H3636   1.046       .  S
N3634      H3637   1.046       .  S
N3634      H3638   1.046       .  S
C3639      H3646   1.084       .  S
C3639      C3640   1.407       .  A
C3639      C3644   1.402       .  A
C3640      C3641   1.418       .  A
C3641      C3642   1.406       .  A
C3641      N3648   1.438       .  S
C3642      H3647   1.083       .  S
C3642      C3643   1.401       .  A
C3643      C3644   1.416       .  A
C3644      N3645   1.439       .  S
N3645      H3649   1.046       .  S
N3645      H3650   1.043       .  S
N3648      H3651   1.046       .  S
N3648      H3652   1.046       .  S
C3653      H3660   1.084       .  S
C3653      C3654   1.411       .  A
C3653      C3658   1.404       .  A
C3654      C3655   1.418       .  A
C3655      C3656   1.412       .  A
C3655      N3662   1.437   1_655  S
C3656      H3661   1.084       .  S
C3656      C3657   1.404       .  A
C3657      C3658   1.414       .  A
C3658      N3659   1.439       .  S
N3659      H3663   1.046       .  S
N3659      H3664   1.043       .  S
N3662      H3665   1.046       .  S
N3662      H3666   1.046       .  S
C3667      H3674   1.083       .  S
C3667      C3668   1.409       .  A
C3667      C3672   1.405       .  A
C3668      C3669   1.417       .  A
C3669      C3670   1.408       .  A
C3669      N3676   1.432   1_655  S
C3670      H3675   1.084       .  S
C3670      C3671   1.402       .  A
C3671      C3672   1.405       .  A
C3672      N3673   1.432       .  S
N3673      H3678   1.046       .  S
N3676      H3679   1.046   1_455  S
N3676      H3680   1.046       .  S
C3681      H3688   1.084       .  S
C3681      C3682   1.401       .  A
C3681      C3686   1.408       .  A
C3682      C3683   1.415       .  A
C3683      C3684   1.404       .  A
C3683      N3690   1.438       .  S
C3684      H3689   1.084       .  S
C3684      C3685   1.409       .  A
C3685      C3686   1.420       .  A
C3686      N3687   1.438       .  S
N3687      H3691   1.046       .  S
N3687      H3692   1.045       .  S
N3690      H3693   1.043       .  S
N3690      H3694   1.046       .  S
C3695      H3702   1.084       .  S
C3695      C3696   1.401       .  A
C3695      C3700   1.402       .  A
C3696      C3697   1.408       .  A
C3697      C3698   1.405       .  A
C3697      N3704   1.437       .  S
C3698      H3703   1.083   1_545  S
C3698      C3699   1.409       .  A
C3699      C3952   1.494   1_545  S
C3699      C3700   1.422       .  A
C3700      N4979   1.432       .  S
N3701      C4978   1.432       .  S
N3701      H4983   1.045       .  S
N3701      H3706   1.045       .  S
N3704      H3707   1.045       .  S
N3704      H3708   1.046       .  S
H3705      N4979   1.045       .  S
C3709      H3716   1.083       .  S
C3709      C3710   1.400       .  A
C3709      C3714   1.395       .  A
C3710      C3711   1.406       .  A
C3711      C3712   1.403       .  A
C3711      N3718   1.438       .  S
C3712      H3717   1.084       .  S
C3712      C3713   1.408       .  A
C3713      C3714   1.417       .  A
C3714      N3715   1.433       .  S
N3715      H3719   1.043       .  S
N3715      H3720   1.046       .  S
N3718      H3721   1.043       .  S
N3718      H3722   1.046       .  S
C3723      H3730   1.084       .  S
C3723      C3724   1.399       .  A
C3723      C3728   1.404       .  A
C3724      C3725   1.414       .  A
C3725      C3726   1.401       .  A
C3725      N3732   1.439       .  S
C3726      H3731   1.084       .  S
C3726      C3727   1.409       .  A
C3727      C3728   1.418       .  A
C3728      N3729   1.438       .  S
N3729      H3733   1.046       .  S
N3729      H3734   1.046       .  S
N3732      H3735   1.043       .  S
N3732      H3736   1.045       .  S
C3737      H3744   1.084       .  S
C3737      C3738   1.400       .  A
C3737      C3742   1.405       .  A
C3738      C3739   1.406       .  A
C3739      C5018   1.403       .  A
C3739      N3746   1.432       .  S
C3740      H3745   1.084       .  S
C3740      C5017   1.402       .  A
C3740      C5019   1.405       .  A
C3741      C3942   1.490   1_545  S
C3741      C5018   1.408       .  A
C3741      C3742   1.416       .  A
C3742      N3743   1.432       .  S
N3743      H3747   1.046   1_545  S
N3743      H3748   1.045       .  S
N3746      H3749   1.046       .  S
N3746      H5028   1.046       .  S
H3750      N5024   1.046       .  S
C3751      H3758   1.084       .  S
C3751      C3752   1.408       .  A
C3751      C3756   1.400       .  A
C3752      C3753   1.415       .  A
C3753      C3754   1.401       .  A
C3753      N3760   1.433       .  S
C3754      H3759   1.084       .  S
C3754      C3755   1.400       .  A
C3755      C3756   1.414       .  A
C3756      N3757   1.438       .  S
N3757      H3761   1.045       .  S
N3757      H3762   1.042       .  S
N3760      H3763   1.046       .  S
N3760      H3764   1.046       .  S
C3765      H3772   1.084       .  S
C3765      C3766   1.407       .  A
C3765      C3770   1.397       .  A
C3766      C3767   1.411       .  A
C3767      C3768   1.410       .  A
C3767      N3774   1.437       .  S
C3768      H3773   1.084       .  S
C3768      C3769   1.408       .  A
C3769      C3770   1.415       .  A
C3770      N3771   1.438       .  S
N3771      H3775   1.045       .  S
N3771      H3776   1.040       .  S
N3774      H3777   1.046       .  S
N3774      H3778   1.046       .  S
C3779      H3786   1.083       .  S
C3779      C3780   1.410       .  A
C3779      C3784   1.395       .  A
C3780      C3781   1.420       .  A
C3782      H3787   1.084       .  S
C3783      C3784   1.406       .  A
C3784      N3785   1.433       .  S
N3785      H3789   1.045       .  S
N3785      H3790   1.045       .  S
N3788      H3791   1.046       .  S
N3788      H3792   1.046       .  S
C3793      H3800   1.084       .  S
C3793      C3794   1.409       .  A
C3793      C3798   1.397       .  A
C3794      C3795   1.420       .  A
C3795      C3796   1.399       .  A
C3795      N3802   1.432       .  S
C3796      H3801   1.084       .  S
C3796      C3797   1.400       .  A
C3797      C3798   1.412       .  A
C3798      N3799   1.439       .  S
N3799      H3803   1.045       .  S
N3799      H3804   1.043       .  S
N3802      H3805   1.045       .  S
N3802      H3806   1.045       .  S
C3807      H3814   1.083       .  S
C3808      C3809   1.413       .  A
C3809      C3810   1.399       .  A
C3809      N3816   1.433       .  S
C3810      H3815   1.084       .  S
C3810      C3811   1.402       .  A
C3811      C3812   1.411       .  A
N3813      H3817   1.045       .  S
N3816      H3819   1.046       .  S
N3816      H3820   1.046       .  S
C3821      H3828   1.083       .  S
C3821      C3822   1.411       .  A
C3821      C3826   1.409       .  A
C3822      C3823   1.413       .  A
C3823      C3824   1.404       .  A
C3823      N3830   1.432       .  S
C3824      H3829   1.084       .  S
C3824      C3825   1.402       .  A
C3825      C3826   1.409       .  A
C3826      N3827   1.437       .  S
N3827      H3831   1.046       .  S
N3827      H3832   1.045       .  S
N3830      H3833   1.046       .  S
N3830      H3834   1.046       .  S
O3835     Mg3837   2.144       .  S
O3835     Mg3843   2.150       .  S
O3835      C3870   1.234       .  S
C3836      O3849   1.234       .  S
C3836      O3873   1.269       .  A
C3836      H3875   1.081       .  S
Mg3837     O3866   2.160       .  S
Mg3837     O3881   2.274       .  S
Mg3837     O3877   2.265       .  S
Mg3837     O3848   2.296       .  S
O3838     Mg3880   2.156       .  S
O3838     Mg3863   2.139       .  S
O3838      C3859   1.235       .  S
O3839      C3870   1.269       .  A
O3839     Mg3863   2.298       .  S
C3840      O3842   1.269       .  A
C3840      O3854   1.271       .  A
C3840      C5072   1.482       .  S
O3841      C3869   1.271       .  A
O3841     Mg3843   2.307       .  S
O3842     Mg3874   2.269       .  S
Mg3843     O3849   2.163       .  S
Mg3843     O3845   2.292       .  S
C3844      O3882   1.269       .  A
C3844      O3850   1.272       .  A
C3844      C5030   1.487       .  S
O3845      C3852   1.274       .  A
H3846      C3859   1.081       .  S
C3847      O3861   1.235       .  S
C3847      O3862   1.271       .  A
C3847      H3872   1.081       .  S
O3848      C3871   1.268       .  A
O3849     Mg3863   2.168       .  S
O3850     Mg3880   2.289       .  S
C3851      O3864   1.272       .  A
C3851      O3856   1.275       .  A
C3851      C5100   1.491       .  S
C3852      O3879   1.271       .  A
Mg3853     O3860   2.139       .  S
Mg3853     O3861   2.153       .  S
Mg3853     O3854   2.280       .  S
Mg3853     O3855   2.296       .  S
Mg3853     O3882   2.245       .  S
O3855      C3859   1.269       .  A
O3856     Mg3863   2.305       .  S
O3857      C3876   1.274       .  A
O3858      C3878   1.273       .  A
O3858     Mg3874   2.285       .  S
O3860     Mg3874   2.142       .  S
O3860      C3871   1.234       .  S
O3861     Mg3880   2.142       .  S
O3862     Mg3874   2.309       .  S
Mg3863     O3879   2.245       .  S
O3864     Mg3880   2.265       .  S
H3865      C3870   1.081       .  S
O3866     Mg3874   2.146       .  S
O3866      C3869   1.235       .  S
H3867      C3869   1.081       .  S
H3868      C3871   1.081       .  S
O3873     Mg3880   2.303       .  S
C3876      C5044   1.489       .  S
O3877      C3878   1.270       .  A
C3878      C5058   1.490       .  S
C3883      C5103   1.483       .  S
C3883      C3884   1.419       .  A
C3883      C3888   1.402       .  A
C3884      C5016   1.481       .  S
C3884      C3885   1.407       .  A
C3885      H3890   1.084       .  S
C3885      C3886   1.398       .  A
C3886      C5002   1.479       .  S
C3886      C3887   1.406       .  A
C3887      C4988   1.472       .  S
C3887      C3888   1.396       .  A
C3888      H3889   1.085       .  S
C3891      C4974   1.482       .  S
C3891      C3892   1.411       .  A
C3891      C3896   1.401       .  A
C3892      C5089   1.484       .  S
C3892      C3893   1.400       .  A
C3893      H3898   1.084       .  S
C3893      C3894   1.405       .  A
C3894      C4949   1.486       .  S
C3894      C3895   1.421       .  A
C3895      C4960   1.489       .  S
C3895      C3896   1.407       .  A
C3896      H3897   1.084       .  S
O3899     Mg3901   2.146       .  S
O3899     Mg3907   2.154       .  S
O3899      C3934   1.234       .  S
C3900      O3913   1.235       .  S
C3900      O3937   1.268       .  A
C3900      H3939   1.081       .  S
Mg3901     O3930   2.168       .  S
Mg3901     O3941   2.255       .  S
Mg3901     O3912   2.301       .  S
O3902     Mg3944   2.156       .  S
O3902     Mg3927   2.155       .  S
O3902      C3923   1.236       .  S
O3903      C3934   1.268       .  A
O3903     Mg3927   2.296       .  S
C3904      O3906   1.275       .  A
C3904      O3918   1.276       .  A
O3905      C3933   1.271       .  A
O3905     Mg3907   2.305       .  S
O3906     Mg3938   2.294       .  S
Mg3907     O3913   2.144       .  S
Mg3907     O3909   2.304       .  S
C3908      O3946   1.272       .  A
C3908      C4893   1.493       .  S
O3909      C3916   1.275       .  A
H3910      C3923   1.081       .  S
C3911      O3925   1.234       .  S
C3911      O3926   1.270       .  A
C3911      H3936   1.081       .  S
O3912      C3935   1.270       .  A
O3913     Mg3927   2.164       .  S
O3914     Mg3944   2.290       .  S
C3915      O3928   1.272       .  A
C3915      O3920   1.277       .  A
C3915      C4904   1.496       .  S
C3916      O3943   1.275       .  A
C3916      C4918   1.495       .  S
Mg3917     O3924   2.161       .  S
Mg3917     O3925   2.150       .  S
Mg3917     O3918   2.305       .  S
Mg3917     O3919   2.307       .  S
O3919      C3923   1.271       .  A
O3920     Mg3927   2.318       .  S
O3921      C3940   1.272       .  A
O3922      C3942   1.277       .  A
O3922     Mg3938   2.318       .  S
O3924     Mg3938   2.163       .  S
O3924      C3935   1.235       .  S
O3925     Mg3944   2.160       .  S
O3926     Mg3938   2.308       .  S
Mg3927     O3943   2.274       .  S
O3928     Mg3944   2.266       .  S
H3929      C3934   1.081       .  S
O3930     Mg3938   2.168       .  S
O3930      C3933   1.236       .  S
H3931      C3933   1.081       .  S
H3932      C3935   1.081       .  S
O3937     Mg3944   2.293       .  S
C3940      O3945   1.277       .  A
C3940      C4876   1.497       .  S
O3941      C3942   1.271       .  A
O3947     Mg3949   2.129       .  S
O3947     Mg3955   2.153       .  S
O3947      C3982   1.236       .  S
C3948      O3961   1.236       .  S
C3948      O3985   1.272       .  A
C3948      H3987   1.081       .  S
Mg3949     O3978   2.154       .  S
Mg3949     O3993   2.300       .  S
Mg3949     O3989   2.248       .  S
Mg3949     O3960   2.300       .  S
O3950     Mg3992   2.135       .  S
O3950     Mg3975   2.141       .  S
O3950      C3971   1.233       .  S
O3951      C3982   1.269       .  A
O3951     Mg3975   2.294       .  S
C3952      O3954   1.268       .  A
C3952      O3966   1.276       .  A
O3953      C3981   1.267       .  A
O3953     Mg3955   2.296       .  S
O3954     Mg3986   2.238       .  S
Mg3955     O3961   2.148       .  S
Mg3955     O3969   2.263       .  S
Mg3955     O3957   2.268       .  S
C3956      O3994   1.272       .  A
C3956      C4809   1.490       .  S
O3957      C3964   1.269       .  A
H3958      C3971   1.081       .  S
C3959      O3973   1.235       .  S
C3959      O3974   1.269       .  A
C3959      H3984   1.081   1_565  S
O3960      C3983   1.270       .  A
O3961     Mg3975   2.155       .  S
O3962     Mg3992   2.302   1_545  S
C3963      O3976   1.275       .  A
C3963      O3968   1.269       .  A
C3963      C4834   1.494       .  S
C3964      O3991   1.270       .  A
C3964      C4848   1.482       .  S
Mg3965     O3972   2.145       .  S
Mg3965     O3973   2.171       .  S
Mg3965     O3966   2.325       .  S
Mg3965     O3967   2.300       .  S
O3967      C3971   1.268       .  A
O3968     Mg3975   2.282       .  S
O3969      C3988   1.272       .  A
O3970      C3990   1.271       .  A
O3970     Mg3986   2.275       .  S
O3972     Mg3986   2.154       .  S
O3972      C3983   1.235       .  S
O3973     Mg3992   2.161       .  S
O3974     Mg3986   2.299       .  S
Mg3975     O3991   2.257       .  S
O3976     Mg3992   2.300       .  S
H3977      C3982   1.081       .  S
O3978     Mg3986   2.135       .  S
O3978      C3981   1.233       .  S
H3979      C3981   1.081       .  S
H3980      C3983   1.081       .  S
O3985     Mg3992   2.311       .  S
C3988      O3993   1.272       .  A
C3988      C4820   1.493       .  S
O3989      C3990   1.269       .  A
C3990      C4865   1.482       .  S
C3995      C4862   1.471       .  S
C3995      C3996   1.411       .  A
C3995      C4000   1.391       .  A
C3996      C4935   1.496       .  S
C3996      C3997   1.416       .  A
C3997      H4002   1.083       .  S
C3997      C3998   1.417       .  A
C3998      C4781   1.500       .  S
C3998      C3999   1.417       .  A
C3999      C4792   1.479       .  S
C3999      C4000   1.396       .  A
C4000      H4001   1.085       .  S
O4003     Mg4005   2.162   1_554  S
O4003      C4038   1.235       .  S
C4004      O4017   1.234       .  S
C4004      O4041   1.269       .  A
C4004      H4043   1.081       .  S
Mg4005     O4016   2.302       .  S
O4006     Mg4031   2.138       .  S
O4006      C4027   1.234       .  S
O4007      C4038   1.270       .  A
O4007     Mg4031   2.309       .  S
C4008      O4010   1.269       .  A
C4008      O4022   1.273       .  A
C4008      C4764   1.473       .  S
O4009      C4037   1.270   1_554  A
O4009     Mg4011   2.306       .  S
O4010     Mg4042   2.249       .  S
Mg4011     O4017   2.162       .  S
Mg4011     O4025   2.274       .  S
C4012      O4050   1.273       .  A
C4012      O4018   1.274   1_556  A
C4012      C4725   1.495       .  S
O4013      C4020   1.275       .  A
H4014      C4027   1.081       .  S
C4015      O4029   1.235       .  S
C4015      O4030   1.270       .  A
C4015      H4040   1.081   1_556  S
O4016      C4039   1.269       .  A
C4019      O4032   1.273       .  A
C4019      O4024   1.274       .  A
C4019      C4963   1.495       .  S
C4020      O4047   1.268       .  A
C4020      C5005   1.490       .  S
Mg4021     O4028   2.164       .  S
Mg4021     O4023   2.295       .  S
Mg4021     O4050   2.288       .  S
O4023      C4027   1.268   1_556  A
O4024     Mg4031   2.304       .  S
O4025      C4044   1.272       .  A
O4026      C4046   1.274       .  A
O4026     Mg4042   2.305       .  S
O4028      C4039   1.234       .  S
O4029     Mg4048   2.153   1_556  S
O4030     Mg4042   2.305       .  S
Mg4031     O4047   2.244       .  S
H4033      C4038   1.081   1_556  S
O4034     Mg4042   2.139       .  S
O4034      C4037   1.235       .  S
H4035      C4037   1.081       .  S
H4036      C4039   1.081       .  S
O4041     Mg4048   2.303       .  S
C4044      O4049   1.273   1_554  A
C4044      C4736   1.487       .  S
O4045      C4046   1.272       .  A
C4046      C4753   1.496       .  S
O4051     Mg4053   2.121   1_556  S
O4051     Mg4059   2.149       .  S
O4051      C4086   1.233       .  S
C4052      O4065   1.235       .  S
C4052      O4089   1.270       .  A
C4052      H4091   1.081       .  S
Mg4053     O4082   2.153       .  S
Mg4053     O4097   2.279       .  S
Mg4053     O4093   2.250       .  S
Mg4053     O4064   2.300       .  S
O4054     Mg4096   2.160       .  S
O4054     Mg4079   2.140       .  S
O4054      C4075   1.233       .  S
O4055      C4086   1.266       .  A
O4055     Mg4079   2.288       .  S
C4056      O4058   1.267       .  A
C4056      O4070   1.274       .  A
C4056      C4991   1.479       .  S
O4057      C4085   1.268   1_556  A
O4057     Mg4059   2.299       .  S
O4058     Mg4090   2.232       .  S
Mg4059     O4065   2.143       .  S
Mg4059     O4073   2.267       .  S
Mg4059     O4061   2.296       .  S
C4060      O4098   1.274       .  A
C4060      O4066   1.274   1_554  A
C4060      C4669   1.493       .  S
O4061      C4068   1.274       .  A
H4062      C4075   1.081       .  S
C4063      O4077   1.234       .  S
C4063      O4078   1.268       .  A
C4063      H4088   1.081   1_554  S
O4064      C4087   1.270       .  A
O4065     Mg4079   2.160       .  S
O4066     Mg4096   2.292       .  S
C4067      O4080   1.267       .  A
C4067      O4072   1.269       .  A
C4067      C4711   1.482       .  S
C4068      O4095   1.268       .  A
C4068      C4697   1.487       .  S
Mg4069     O4076   2.150       .  S
Mg4069     O4077   2.153       .  S
Mg4069     O4070   2.289       .  S
Mg4069     O4071   2.295       .  S
Mg4069     O4098   2.281       .  S
O4071      C4075   1.267   1_554  A
O4072     Mg4079   2.255       .  S
O4073      C4092   1.273       .  A
O4074      C4094   1.269       .  A
O4074     Mg4090   2.272       .  S
O4076     Mg4090   2.157       .  S
O4076      C4087   1.236       .  S
O4077     Mg4096   2.124   1_554  S
O4078     Mg4090   2.293       .  S
Mg4079     O4095   2.240       .  S
O4080     Mg4096   2.246       .  S
H4081      C4086   1.081   1_554  S
O4082     Mg4090   2.135       .  S
O4082      C4085   1.234       .  S
H4083      C4085   1.081       .  S
H4084      C4087   1.081       .  S
O4089     Mg4096   2.300       .  S
C4092      O4097   1.272   1_556  A
C4092      C4680   1.487       .  S
O4093      C4094   1.269       .  A
C4094      C4795   1.481       .  S
O4099     Mg4101   2.158   1_556  S
O4099      C4134   1.234       .  S
C4100      O4113   1.236       .  S
C4100      O4137   1.270       .  A
C4100      H4139   1.081       .  S
Mg4101     O4112   2.299       .  S
O4102     Mg4127   2.164       .  S
O4102      C4123   1.235       .  S
O4103      C4134   1.268       .  A
O4103     Mg4127   2.300       .  S
C4104      O4106   1.279       .  A
C4104      O4118   1.279       .  A
C4104      C4778   1.503       .  S
O4105      C4133   1.273   1_556  A
O4105     Mg4107   2.316       .  S
O4106     Mg4138   2.318       .  S
Mg4107     O4113   2.149       .  S
Mg4107     O4121   2.269       .  S
C4108      O4146   1.274       .  A
C4108      O4114   1.272   1_554  A
C4108      C4624   1.494       .  S
O4109      C4116   1.277       .  A
H4110      C4123   1.081       .  S
C4111      O4125   1.233       .  S
C4111      O4126   1.268       .  A
C4111      H4136   1.081   1_554  S
O4112      C4135   1.270       .  A
C4115      O4128   1.270       .  A
C4115      O4120   1.277       .  A
C4115      C4641   1.489       .  S
C4116      O4143   1.276       .  A
C4116      C4655   1.495       .  S
Mg4117     O4124   2.155       .  S
Mg4117     O4119   2.306       .  S
Mg4117     O4146   2.278       .  S
O4119      C4123   1.271   1_554  A
O4120     Mg4127   2.311       .  S
O4121      C4140   1.272       .  A
O4122      C4142   1.278       .  A
O4122     Mg4138   2.322       .  S
O4124      C4135   1.235       .  S
O4125     Mg4144   2.171   1_554  S
O4126     Mg4138   2.301       .  S
Mg4127     O4143   2.295       .  S
H4129      C4134   1.081   1_554  S
O4130     Mg4138   2.183       .  S
O4130      C4133   1.236       .  S
H4131      C4133   1.081       .  S
H4132      C4135   1.081       .  S
O4137     Mg4144   2.294       .  S
C4140      O4145   1.276   1_556  A
C4140      C4613   1.495       .  S
O4141      C4142   1.272       .  A
C4142      C4946   1.490       .  S
O4147     Mg4149   2.137       .  S
O4147     Mg4155   2.160       .  S
O4147      C4182   1.234       .  S
C4148      O4161   1.235       .  S
C4148      O4185   1.270       .  A
C4148      H4187   1.081       .  S
Mg4149     O4178   2.148       .  S
Mg4149     O4193   2.281       .  S
Mg4149     O4189   2.263       .  S
Mg4149     O4160   2.302       .  S
O4150     Mg4192   2.151       .  S
O4150     Mg4175   2.140       .  S
O4150      C4171   1.233       .  S
O4151      C4182   1.268       .  A
O4151     Mg4175   2.290       .  S
C4152      O4154   1.269       .  A
C4152      O4166   1.272       .  A
C4152      C4596   1.479       .  S
O4153      C4181   1.269       .  A
O4153     Mg4155   2.301       .  S
O4154     Mg4186   2.244       .  S
Mg4155     O4161   2.145       .  S
Mg4155     O4157   2.309       .  S
C4156      O4194   1.270       .  A
C4156      O4162   1.275       .  A
C4156      C4526   1.492       .  S
O4157      C4164   1.276       .  A
H4158      C4171   1.081       .  S
C4159      O4173   1.234       .  S
C4159      O4174   1.269       .  A
C4159      H4184   1.081       .  S
O4160      C4183   1.270       .  A
O4161     Mg4175   2.159       .  S
O4162     Mg4192   2.300       .  S
C4163      O4176   1.270       .  A
C4163      O4168   1.271       .  A
C4163      C4568   1.485       .  S
C4164      O4191   1.269       .  A
Mg4165     O4172   2.151       .  S
Mg4165     O4173   2.157       .  S
Mg4165     O4166   2.287       .  S
Mg4165     O4167   2.295       .  S
Mg4165     O4194   2.263       .  S
O4167      C4171   1.268       .  A
O4168     Mg4175   2.273       .  S
O4169      C4188   1.272       .  A
O4170      C4190   1.273       .  A
O4170     Mg4186   2.294       .  S
O4172     Mg4186   2.160       .  S
O4172      C4183   1.235       .  S
O4173     Mg4192   2.138       .  S
O4174     Mg4186   2.298       .  S
Mg4175     O4191   2.242       .  S
O4176     Mg4192   2.256       .  S
H4177      C4182   1.081       .  S
O4178     Mg4186   2.140       .  S
O4178      C4181   1.234       .  S
H4179      C4181   1.081       .  S
H4180      C4183   1.081       .  S
O4185     Mg4192   2.300       .  S
C4188      C4543   1.484       .  S
O4189      C4190   1.269       .  A
C4190      C4582   1.495       .  S
C4195      C4652   1.492       .  S
C4195      C4196   1.410       .  A
C4195      C4200   1.410       .  A
C4196      C4708   1.469       .  S
C4196      C4197   1.392       .  A
C4197      H4202   1.085       .  S
C4197      C4198   1.391       .  A
C4198      C4571   1.474       .  S
C4198      C4199   1.418       .  A
C4199      C4512   1.493       .  S
C4199      C4200   1.413       .  A
C4200      H4201   1.083       .  S
C4203      C4750   1.488       .  S
C4203      C4204   1.421       .  A
C4203      C4208   1.409       .  A
C4204      C4638   1.489       .  S
C4204      C4205   1.405       .  A
C4205      H4210   1.084       .  S
C4205      C4206   1.400       .  A
C4206      C4498   1.477       .  S
C4206      C4207   1.411       .  A
C4207      C4554   1.489       .  S
C4207      C4208   1.402       .  A
C4208      H4209   1.084       .  S
O4211     Mg4213   2.152       .  S
O4211     Mg4219   2.162       .  S
O4211      C4246   1.234       .  S
C4212      O4225   1.234       .  S
C4212      O4249   1.270       .  A
C4212      H4251   1.081       .  S
Mg4213     O4242   2.163       .  S
Mg4213     O4257   2.274   1_655  S
Mg4213     O4253   2.263       .  S
Mg4213     O4224   2.290       .  S
O4214     Mg4256   2.166       .  S
O4214     Mg4239   2.173       .  S
O4214      C4235   1.236       .  S
O4215      C4246   1.269       .  A
O4215     Mg4239   2.299       .  S
C4216      O4218   1.272       .  A
C4216      O4230   1.275       .  A
C4216      C4473   1.489       .  S
O4217      C4245   1.269       .  A
O4217     Mg4219   2.296       .  S
O4218     Mg4250   2.271       .  S
Mg4219     O4225   2.153       .  S
Mg4219     O4221   2.301       .  S
C4220      O4258   1.271       .  A
C4220      O4226   1.275       .  A
C4220      C4428   1.495       .  S
O4221      C4228   1.276       .  A
H4222      C4235   1.081       .  S
C4223      O4237   1.234       .  S
C4223      O4238   1.269       .  A
C4223      H4248   1.081       .  S
O4224      C4247   1.268       .  A
O4225     Mg4239   2.161       .  S
C4227      O4240   1.272       .  A
C4227      O4232   1.275       .  A
C4228      O4255   1.277       .  A
Mg4229     O4236   2.134       .  S
Mg4229     O4237   2.153       .  S
Mg4229     O4230   2.299       .  S
Mg4229     O4231   2.309       .  S
O4231      C4235   1.272       .  A
O4232     Mg4239   2.304       .  S
O4233      C4252   1.272       .  A
O4234      C4254   1.275       .  A
O4234     Mg4250   2.303       .  S
O4236     Mg4250   2.160       .  S
O4236      C4247   1.234       .  S
O4237     Mg4256   2.151       .  S
O4238     Mg4250   2.301       .  S
Mg4239     O4255   2.304       .  S
O4240     Mg4256   2.257       .  S
H4241      C4246   1.081   1_455  S
O4242     Mg4250   2.144       .  S
O4242      C4245   1.235       .  S
H4243      C4245   1.081       .  S
H4244      C4247   1.081       .  S
O4249     Mg4256   2.302       .  S
C4252      C4442   1.488       .  S
O4253      C4254   1.270       .  A
C4254      C4487   1.491       .  S
O4259     Mg4261   2.153       .  S
O4259     Mg4267   2.158       .  S
O4259      C4294   1.233       .  S
C4260      O4273   1.235       .  S
C4260      O4297   1.269       .  A
C4260      H4299   1.081       .  S
Mg4261     O4290   2.157       .  S
Mg4261     O4305   2.297       .  S
Mg4261     O4301   2.281       .  S
Mg4261     O4272   2.301       .  S
O4262     Mg4304   2.157       .  S
O4262     Mg4287   2.153       .  S
O4262      C4283   1.235       .  S
O4263      C4294   1.268       .  A
O4263     Mg4287   2.301       .  S
C4264      O4266   1.269       .  A
C4264      O4278   1.276       .  A
O4265      C4293   1.270       .  A
O4265     Mg4267   2.302       .  S
O4266     Mg4298   2.249       .  S
Mg4267     O4273   2.149       .  S
Mg4267     O4281   2.262       .  S
Mg4267     O4269   2.293       .  S
C4268      O4306   1.272       .  A
C4268      C4358   1.490       .  S
O4269      C4276   1.273       .  A
H4270      C4283   1.081       .  S
C4271      O4285   1.234       .  S
C4271      O4286   1.270       .  A
C4271      H4296   1.081       .  S
O4272      C4295   1.269       .  A
O4273     Mg4287   2.159       .  S
O4274     Mg4304   2.287   1_455  S
C4275      O4288   1.272       .  A
C4275      O4280   1.274       .  A
C4275      C4414   1.493       .  S
C4276      O4303   1.272       .  A
C4276      C4403   1.488       .  S
Mg4277     O4284   2.163       .  S
Mg4277     O4285   2.153       .  S
Mg4277     O4278   2.305       .  S
Mg4277     O4279   2.311       .  S
O4279      C4283   1.271       .  A
O4280     Mg4287   2.293       .  S
O4281      C4300   1.271       .  A
O4282      C4302   1.275       .  A
O4282     Mg4298   2.312       .  S
O4284     Mg4298   2.164       .  S
O4284      C4295   1.234       .  S
O4285     Mg4304   2.161       .  S
O4286     Mg4298   2.306       .  S
Mg4287     O4303   2.266       .  S
O4288     Mg4304   2.275       .  S
H4289      C4294   1.081       .  S
O4290     Mg4298   2.151       .  S
O4290      C4293   1.235       .  S
H4291      C4293   1.081       .  S
H4292      C4295   1.081       .  S
O4297     Mg4304   2.300       .  S
C4300      O4305   1.275       .  A
C4300      C4375   1.492       .  S
O4301      C4302   1.273       .  A
C4302      C4389   1.499       .  S
C4307      C4694   1.477       .  S
C4307      C4308   1.408       .  A
C4307      C4312   1.400       .  A
C4308      C4767   1.477       .  S
C4308      C4309   1.396       .  A
C4309      H4314   1.085       .  S
C4309      C4310   1.402       .  A
C4310      C4456   1.481       .  S
C4310      C4311   1.421       .  A
C4311      C4386   1.488       .  S
C4311      C4312   1.406       .  A
C4312      H4313   1.084       .  S
C4315      C5061   1.478       .  S
C4315      C4316   1.414       .  A
C4315      C4320   1.401       .  A
C4316      C4907   1.486       .  S
C4316      C4317   1.403       .  A
C4317      H4322   1.085       .  S
C4318      C4417   1.482       .  S
C4318      C4319   1.416       .  A
C4319      C4484   1.487       .  S
C4320      H4321   1.085       .  S
C4323      C5075   1.480       .  S
C4323      C4324   1.410       .  A
C4323      C4328   1.399       .  A
C4324      C4851   1.478       .  S
C4324      C4325   1.403       .  A
C4325      H4330   1.084       .  S
C4325      C4326   1.403       .  A
C4326      C4400   1.486       .  S
C4326      C4327   1.416       .  A
C4327      C4599   1.479       .  S
C4327      C4328   1.401       .  A
C4328      H4329   1.084       .  S
C4331      C4921   1.484       .  S
C4331      C4332   1.412       .  A
C4331      C4336   1.404       .  A
C4332      C4837   1.483       .  S
C4332      C4333   1.402   1_565  A
C4333      H4338   1.084       .  S
C4334      C4470   1.480       .  S
C4334      C4335   1.412       .  A
C4335      C4585   1.483       .  S
C4336      H4337   1.084       .  S
C4339      C4627   1.491       .  S
C4339      C4340   1.412   1_565  A
C4340      C4739   1.482       .  S
C4341      C4666   1.487       .  S
C4341      C4342   1.412   1_554  A
C4343      C4344   1.416       .  A
C4344      C4683   1.479       .  S
C4345      C5047   1.493       .  S
C4345      C4346   1.419       .  A
C4345      C4350   1.414       .  A
C4346      C4806   1.484       .  S
C4346      C4347   1.415       .  A
C4347      C4879   1.497       .  S
C4347      C4348   1.413       .  A
C4348      C5033   1.481       .  S
C4348      C4349   1.415       .  A
C4349      C4823   1.488       .  S
C4349      C4350   1.412       .  A
C4350      C4890   1.492       .  S
C4351      C4372   1.481       .  S
C4351      C4352   1.413       .  A
C4351      C4356   1.413       .  A
C4352      C4431   1.491       .  S
C4352      C4353   1.410       .  A
C4353      C4540   1.478       .  S
C4353      C4354   1.409       .  A
C4354      C4361   1.485       .  S
C4354      C4355   1.409       .  A
C4355      C4445   1.483       .  S
C4355      C4356   1.410       .  A
C4356      C4529   1.484       .  S
C4357      H4364   1.083       .  S
C4357      C4358   1.408       .  A
C4357      C4362   1.405       .  A
C4358      C4359   1.418       .  A
C4359      C4360   1.397       .  A
C4359      N4366   1.433       .  S
C4360      H4365   1.083       .  S
C4360      C4361   1.396       .  A
C4361      C4362   1.415       .  A
C4362      N4363   1.438       .  S
N4363      H4367   1.045       .  S
N4363      H4368   1.043       .  S
N4366      H4369   1.046       .  S
N4366      H4370   1.046       .  S
C4371      H4378   1.084       .  S
C4371      C4372   1.393       .  A
C4371      C4376   1.393       .  A
C4372      C4373   1.414       .  A
C4373      C4374   1.406       .  A
C4373      N4380   1.437       .  S
C4374      H4379   1.083       .  S
C4374      C4375   1.410       .  A
C4375      C4376   1.413       .  A
C4376      N4377   1.426       .  S
N4377      H4381   1.046       .  S
N4377      H4382   1.046       .  S
N4380      H4383   1.043       .  S
N4380      H4384   1.046       .  S
C4385      H4392   1.083       .  S
C4385      C4386   1.396       .  A
C4385      C4390   1.395       .  A
C4386      C4387   1.412       .  A
C4387      C4388   1.413       .  A
C4387      N4394   1.437       .  S
C4388      H4393   1.083       .  S
C4388      C4389   1.410       .  A
C4389      C4390   1.420       .  A
C4390      N4391   1.425       .  S
N4391      H4395   1.044       .  S
N4391      H4396   1.046       .  S
N4394      H4397   1.046       .  S
N4394      H4398   1.046       .  S
C4399      H4406   1.084       .  S
C4399      C4400   1.402       .  A
C4399      C4404   1.400       .  A
C4400      C4401   1.410       .  A
C4401      C4402   1.408       .  A
C4401      N4408   1.439       .  S
C4402      H4407   1.083       .  S
C4402      C4403   1.409       .  A
C4403      C4404   1.413       .  A
C4404      N4405   1.433       .  S
N4405      H4409   1.046       .  S
N4405      H4410   1.046       .  S
N4408      H4411   1.044       .  S
N4408      H4412   1.046       .  S
C4413      H4420   1.084       .  S
C4413      C4414   1.410       .  A
C4413      C4418   1.401       .  A
C4414      C4415   1.418       .  A
C4415      C4416   1.410   1_655  A
C4416      C4417   1.402   1_455  A
C4417      C4418   1.403       .  A
C4418      N4419   1.432       .  S
N4419      H4423   1.046       .  S
N4419      H4424   1.046       .  S
N4422      H4425   1.045       .  S
N4422      H4426   1.046       .  S
C4427      H4434   1.083       .  S
C4427      C4428   1.409       .  A
C4427      C4432   1.401       .  A
C4428      C4429   1.419       .  A
C4429      C4430   1.406       .  A
C4429      N4436   1.438       .  S
C4430      H4435   1.084       .  S
C4430      C4431   1.401       .  A
C4431      C4432   1.413       .  A
C4432      N4433   1.438       .  S
N4433      H4437   1.045       .  S
N4433      H4438   1.042       .  S
N4436      H4439   1.046       .  S
N4436      H4440   1.046       .  S
C4441      H4448   1.083       .  S
C4441      C4442   1.409       .  A
C4441      C4446   1.396       .  A
C4442      C4443   1.413       .  A
C4443      C4444   1.403       .  A
C4443      N4450   1.432       .  S
C4444      H4449   1.084       .  S
C4444      C4445   1.401       .  A
C4445      C4446   1.412       .  A
C4446      N4447   1.439       .  S
N4447      H4451   1.045       .  S
N4447      H4452   1.043       .  S
N4450      H4453   1.045       .  S
N4450      H4454   1.046       .  S
C4455      H4462   1.084       .  S
C4455      C4456   1.399       .  A
C4455      C4460   1.400       .  A
C4456      C4457   1.409       .  A
C4457      C4458   1.405       .  A
C4457      N4464   1.438       .  S
C4458      H4463   1.083       .  S
C4458      C4459   1.408       .  A
C4459      C4460   1.423       .  A
N4461      H4466   1.045       .  S
N4464      H4467   1.045       .  S
N4464      H4468   1.046       .  S
C4469      H4476   1.084       .  S
C4469      C4470   1.402       .  A
C4469      C4474   1.404       .  A
C4470      C4471   1.406       .  A
C4471      C4472   1.402       .  A
C4472      H4477   1.084       .  S
C4472      C4473   1.408       .  A
C4473      C4474   1.420       .  A
C4474      N4475   1.432       .  S
N4475      H4479   1.044       .  S
N4475      H4480   1.045       .  S
N4478      H4481   1.046       .  S
N4478      H4482   1.046       .  S
C4483      H4490   1.084       .  S
C4483      C4484   1.400   1_455  A
C4483      C4488   1.399   1_455  A
C4484      C4485   1.411       .  A
C4485      C4486   1.406       .  A
C4485      N4492   1.438       .  S
C4486      H4491   1.084       .  S
C4486      C4487   1.407       .  A
C4487      C4488   1.422       .  A
C4488      N4489   1.432   1_655  S
N4489      H4493   1.045       .  S
N4489      H4494   1.045       .  S
N4492      H4495   1.045       .  S
N4492      H4496   1.046       .  S
C4497      H4504   1.084       .  S
C4497      C4498   1.400       .  A
C4497      C4502   1.404       .  A
C4498      C4499   1.406       .  A
C4499      C4500   1.404       .  A
C4499      N4506   1.438       .  S
C4500      H4505   1.083       .  S
C4500      C4501   1.409       .  A
C4501      C4502   1.416       .  A
C4502      N4503   1.438       .  S
N4503      H4507   1.046       .  S
N4503      H4508   1.046       .  S
N4506      H4509   1.044       .  S
N4506      H4510   1.046       .  S
C4511      H4518   1.080       .  S
C4511      C4512   1.401       .  A
C4511      C4516   1.405       .  A
C4512      C4513   1.411       .  A
C4514      H4519   1.083   1_455  S
C4515      C4516   1.417       .  A
C4516      N4517   1.438       .  S
N4517      H4521   1.046       .  S
N4517      H4522   1.046       .  S
N4520      H4524   1.046   1_455  S
C4525      H4532   1.084       .  S
C4525      C4526   1.410       .  A
C4525      C4530   1.400       .  A
C4526      C4527   1.420       .  A
C4527      C4528   1.399       .  A
C4527      N4534   1.432       .  S
C4528      H4533   1.083       .  S
C4528      C4529   1.400       .  A
C4529      C4530   1.413       .  A
C4530      N4531   1.439       .  S
N4531      H4535   1.046       .  S
N4531      H4536   1.043       .  S
N4534      H4537   1.045       .  S
N4534      H4538   1.044       .  S
C4539      H4546   1.084       .  S
C4539      C4540   1.401       .  A
C4539      C4544   1.404       .  A
C4540      C4541   1.412       .  A
C4541      C4542   1.395       .  A
C4541      N4548   1.439       .  S
C4542      H4547   1.084       .  S
C4542      C4543   1.408       .  A
C4543      C4544   1.415       .  A
C4544      N4545   1.437       .  S
N4545      H4549   1.046       .  S
N4545      H4550   1.046       .  S
N4548      H4551   1.042       .  S
N4548      H4552   1.046       .  S
C4553      H4560   1.083       .  S
C4553      C4554   1.401       .  A
C4554      C4555   1.409       .  A
C4555      C4556   1.410       .  A
C4555      N4562   1.437       .  S
C4556      H4561   1.083       .  S
C4556      C4557   1.408       .  A
C4558      N4559   1.438       .  S
N4559      H4563   1.046       .  S
N4559      H4564   1.046       .  S
N4562      H4565   1.045       .  S
N4562      H4566   1.046       .  S
C4567      H4574   1.084       .  S
C4567      C4568   1.411       .  A
C4567      C4572   1.395       .  A
C4568      C4569   1.414       .  A
C4569      C4570   1.400       .  A
C4569      N4576   1.433       .  S
C4570      H4575   1.084       .  S
C4570      C4571   1.400       .  A
C4571      C4572   1.407       .  A
C4572      N4573   1.433       .  S
N4573      H4577   1.044       .  S
N4573      H4578   1.046       .  S
N4576      H4579   1.045       .  S
N4576      H4580   1.046       .  S
C4581      H4588   1.084       .  S
C4581      C4582   1.410       .  A
C4581      C4586   1.402       .  A
C4582      C4583   1.422       .  A
C4583      C4584   1.400       .  A
C4584      C4585   1.400       .  A
C4585      C4586   1.414       .  A
C4586      N4587   1.439       .  S
N4587      H4591   1.046       .  S
N4587      H4592   1.043       .  S
N4590      H4593   1.045       .  S
N4590      H4594   1.044       .  S
C4595      H4602   1.084       .  S
C4595      C4596   1.403       .  A
C4595      C4600   1.397       .  A
C4596      C4597   1.417       .  A
C4597      C4598   1.403       .  A
C4597      N4604   1.438       .  S
C4598      H4603   1.084       .  S
C4598      C4599   1.400       .  A
C4599      C4600   1.415       .  A
C4600      N4601   1.437       .  S
N4601      H4605   1.045       .  S
N4601      H4606   1.043       .  S
N4604      H4607   1.046       .  S
N4604      H4608   1.046       .  S
C4609      H4616   1.084       .  S
C4609      C4614   1.401       .  A
C4610      C4611   1.415   1_556  A
C4611      C4612   1.403       .  A
C4611      N4618   1.439       .  S
C4612      H4617   1.084       .  S
C4612      C4613   1.410   1_554  A
C4614      N4615   1.432       .  S
N4615      H4619   1.046       .  S
N4615      H4620   1.046       .  S
N4618      H4621   1.043       .  S
N4618      H4622   1.045       .  S
C4623      H4630   1.083       .  S
C4623      C4628   1.404       .  A
C4624      C4625   1.419   1_554  A
C4625      C4626   1.401       .  A
C4625      N4632   1.433       .  S
C4626      H4631   1.084       .  S
C4626      C4627   1.398   1_556  A
C4628      N4629   1.438       .  S
N4629      H4633   1.045       .  S
N4629      H4634   1.044   1_455  S
N4632      H4635   1.046       .  S
N4632      H4636   1.046       .  S
C4637      H4644   1.084       .  S
C4637      C4638   1.404       .  A
C4637      C4642   1.402       .  A
C4638      C4639   1.410       .  A
C4639      C4640   1.407       .  A
C4639      N4646   1.437       .  S
C4640      H4645   1.084       .  S
C4640      C4641   1.408       .  A
C4641      C4642   1.418       .  A
N4643      H4647   1.044       .  S
N4643      H4648   1.046       .  S
N4646      H4649   1.046       .  S
N4646      H4650   1.045       .  S
C4651      H4658   1.084       .  S
C4651      C4652   1.406       .  A
C4651      C4656   1.408       .  A
C4652      C4653   1.411       .  A
C4653      C4654   1.403       .  A
C4653      N4660   1.433       .  S
C4654      H4659   1.084       .  S
C4654      C4655   1.411       .  A
C4655      C4656   1.412       .  A
C4656      N4657   1.432       .  S
N4657      H4661   1.046       .  S
N4657      H4662   1.046       .  S
N4660      H4663   1.045       .  S
C4665      H4672   1.084       .  S
C4665      C4666   1.402       .  A
C4665      C4670   1.407       .  A
C4666      C4667   1.403   1_554  A
C4667      C4668   1.401       .  A
C4667      N4674   1.432       .  S
C4668      H4673   1.083       .  S
C4668      C4669   1.410   1_556  A
C4669      C4670   1.416       .  A
C4670      N4671   1.432       .  S
N4671      H4675   1.046       .  S
N4671      H4676   1.046       .  S
N4674      H4677   1.045       .  S
N4674      H4678   1.046       .  S
C4679      H4686   1.083       .  S
C4679      C4680   1.409       .  A
C4679      C4684   1.403       .  A
C4680      C4681   1.419   1_556  A
C4681      C4682   1.398       .  A
C4681      N4688   1.433       .  S
C4682      H4687   1.082       .  S
C4682      C4683   1.396   1_554  A
C4683      C4684   1.404       .  A
C4684      N4685   1.432       .  S
N4685      H4689   1.046       .  S
N4685      H4690   1.045       .  S
N4688      H4691   1.046       .  S
N4688      H4692   1.046       .  S
C4693      H4700   1.084       .  S
C4693      C4694   1.397       .  A
C4693      C4698   1.404       .  A
C4694      C4695   1.406       .  A
C4695      C4696   1.402       .  A
C4695      N4702   1.437       .  S
C4696      H4701   1.083       .  S
C4696      C4697   1.407       .  A
C4697      C4698   1.421       .  A
C4698      N4699   1.438       .  S
N4699      H4703   1.046       .  S
N4699      H4704   1.046       .  S
N4702      H4705   1.045       .  S
N4702      H4706   1.046       .  S
C4707      H4714   1.083       .  S
C4707      C4708   1.399       .  A
C4707      C4712   1.394       .  A
C4708      C4709   1.410       .  A
C4709      C4710   1.395       .  A
C4709      N4716   1.440       .  S
C4710      H4715   1.083       .  S
C4710      C4711   1.409       .  A
C4711      C4712   1.419       .  A
C4712      N4713   1.433       .  S
N4713      H4717   1.045       .  S
N4713      H4718   1.045       .  S
N4716      H4719   1.043       .  S
N4716      H4720   1.046       .  S
C4721      H4728   1.083       .  S
C4721      C4722   1.404       .  A
C4721      C4726   1.410       .  A
C4723      C4724   1.399       .  A
C4723      N4730   1.439       .  S
C4724      H4729   1.084       .  S
C4725      C4726   1.416       .  A
C4726      N4727   1.437       .  S
N4727      H4731   1.046       .  S
N4727      H4732   1.046       .  S
N4730      H4733   1.042       .  S
N4730      H4734   1.046       .  S
C4735      H4742   1.083       .  S
C4735      C4740   1.397       .  A
C4736      C4737   1.414       .  A
C4737      C4738   1.406   1_565  A
C4737      N4744   1.432       .  S
C4738      H4743   1.083       .  S
C4738      C4739   1.401       .  A
C4740      N4741   1.433       .  S
N4741      H4745   1.045       .  S
N4741      H4746   1.045       .  S
N4744      H4747   1.046       .  S
N4744      H4748   1.046   1_565  S
C4749      H4756   1.084       .  S
C4749      C4750   1.401       .  A
C4749      C4754   1.404       .  A
C4750      C4751   1.408       .  A
C4751      C4752   1.409       .  A
C4751      N4758   1.432       .  S
C4752      C4753   1.411       .  A
C4753      C4754   1.416       .  A
C4754      N4755   1.432       .  S
N4755      H4759   1.046       .  S
N4755      H4760   1.046       .  S
N4758      H4761   1.046       .  S
C4763      H4770   1.084       .  S
C4763      C4764   1.406       .  A
C4763      C4768   1.397       .  A
C4764      C4765   1.409       .  A
C4765      C4766   1.403       .  A
C4765      N4772   1.432       .  S
C4766      H4771   1.084       .  S
C4766      C4767   1.404       .  A
C4767      C4768   1.403       .  A
C4768      N4769   1.433       .  S
N4769      H4773   1.045       .  S
N4769      H4774   1.045       .  S
N4772      H4775   1.046       .  S
N4772      H4776   1.046       .  S
C4777      H4784   1.084       .  S
C4777      C4778   1.412       .  A
C4777      C4782   1.409       .  A
C4778      C4779   1.416       .  A
C4779      C4780   1.415       .  A
C4779      N4786   1.437       .  S
C4780      H4785   1.084       .  S
C4780      C4781   1.408       .  A
C4781      C4782   1.406       .  A
C4782      N4783   1.432       .  S
N4783      H4787   1.046       .  S
N4783      H4788   1.045       .  S
N4786      H4789   1.045       .  S
N4786      H4790   1.046       .  S
C4791      H4798   1.084       .  S
C4791      C4792   1.400       .  A
C4791      C4796   1.395       .  A
C4792      C4793   1.408       .  A
C4793      C4794   1.403       .  A
C4793      N4800   1.437       .  S
C4794      H4799   1.083       .  S
C4794      C4795   1.407       .  A
C4795      C4796   1.419       .  A
C4796      N4797   1.433       .  S
N4797      H4801   1.043       .  S
N4797      H4802   1.046       .  S
N4800      H4803   1.045       .  S
N4800      H4804   1.046       .  S
C4805      H4812   1.084       .  S
C4805      C4806   1.400       .  A
C4805      C4810   1.404       .  A
C4806      C4807   1.415       .  A
C4807      C4808   1.399       .  A
C4807      N4814   1.439       .  S
C4808      H4813   1.084       .  S
C4808      C4809   1.409       .  A
C4809      C4810   1.417       .  A
C4810      N4811   1.437       .  S
N4811      H4815   1.046       .  S
N4811      H4816   1.046       .  S
N4814      H4817   1.042       .  S
N4814      H4818   1.046       .  S
C4819      H4826   1.084       .  S
C4819      C4820   1.407       .  A
C4819      C4824   1.403       .  A
C4820      C4821   1.423       .  A
C4821      C4822   1.397       .  A
C4821      N4828   1.432       .  S
C4822      H4827   1.084       .  S
C4822      C4823   1.398       .  A
C4823      C4824   1.416       .  A
C4824      N4825   1.438       .  S
N4825      H4829   1.046       .  S
N4825      H4830   1.042       .  S
N4828      H4831   1.045       .  S
N4828      H4832   1.045       .  S
C4833      H4840   1.084       .  S
C4833      C4834   1.408   1_545  A
C4833      C4838   1.406       .  A
C4834      C4835   1.425       .  A
C4835      C4836   1.396       .  A
C4835      N4842   1.433       .  S
C4836      H4841   1.085       .  S
C4836      C4837   1.397       .  A
C4837      C4838   1.416   1_565  A
C4838      N4839   1.438       .  S
N4839      H4843   1.045       .  S
N4839      H4844   1.043       .  S
N4842      H4845   1.045       .  S
N4842      H4846   1.045       .  S
C4847      H4854   1.083       .  S
C4847      C4848   1.406       .  A
C4847      C4852   1.400       .  A
C4848      C4849   1.416       .  A
C4849      C4850   1.401       .  A
C4849      N4856   1.439       .  S
C4850      H4855   1.083       .  S
C4850      C4851   1.401       .  A
C4851      C4852   1.414       .  A
C4852      N4853   1.438       .  S
N4853      H4857   1.046       .  S
N4853      H4858   1.042       .  S
N4856      H4859   1.046       .  S
N4856      H4860   1.046       .  S
C4861      H4868   1.084       .  S
C4861      C4862   1.400       .  A
C4861      C4866   1.401       .  A
C4862      C4863   1.400       .  A
C4863      C4864   1.398       .  A
C4863      N4870   1.432       .  S
C4864      H4869   1.084       .  S
C4864      C4865   1.410       .  A
C4865      C4866   1.414       .  A
C4866      N4867   1.432       .  S
N4867      H4871   1.046       .  S
N4867      H4872   1.045       .  S
N4870      H4873   1.046       .  S
N4870      H4874   1.046       .  S
C4875      H4882   1.083       .  S
C4875      C4876   1.410       .  A
C4875      C4880   1.407       .  A
C4876      C4877   1.416       .  A
C4877      C4878   1.405       .  A
C4877      N4884   1.432       .  S
C4878      H4883   1.082       .  S
C4878      C4879   1.401       .  A
C4879      C4880   1.406       .  A
C4880      N4881   1.432       .  S
N4881      H4885   1.045       .  S
N4881      H4886   1.046       .  S
N4884      H4887   1.046       .  S
N4884      H4888   1.046       .  S
C4889      H4896   1.084       .  S
C4889      C4890   1.404       .  A
C4889      C4894   1.408       .  A
C4890      C4891   1.413       .  A
C4891      C4892   1.397       .  A
C4891      N4898   1.437       .  S
C4892      H4897   1.083       .  S
C4892      C4893   1.409       .  A
C4893      C4894   1.417       .  A
C4894      N4895   1.438       .  S
N4895      H4899   1.046       .  S
N4895      H4900   1.046       .  S
N4898      H4901   1.041       .  S
N4898      H4902   1.045       .  S
C4903      H4910   1.083       .  S
C4903      C4904   1.409       .  A
C4903      C4908   1.406       .  A
C4904      C4905   1.419       .  A
C4905      C4906   1.405       .  A
C4905      N4912   1.433       .  S
C4906      H4911   1.083       .  S
C4906      C4907   1.400       .  A
C4907      C4908   1.407       .  A
C4908      N4909   1.432       .  S
N4909      H4913   1.045       .  S
N4909      H4914   1.046       .  S
N4912      H4915   1.046       .  S
N4912      H4916   1.046       .  S
C4917      H4924   1.083       .  S
C4917      C4918   1.409       .  A
C4917      C4922   1.402       .  A
C4918      C4919   1.419       .  A
C4919      C4920   1.406       .  A
C4919      N4926   1.438   1_565  S
C4920      H4925   1.083   1_565  S
C4920      C4921   1.401       .  A
C4921      C4922   1.414       .  A
C4922      N4923   1.439       .  S
N4923      H4927   1.046       .  S
N4923      H4928   1.043       .  S
N4926      H4929   1.046   1_545  S
N4926      H4930   1.046       .  S
C4931      H4938   1.084       .  S
C4931      C4932   1.411       .  A
C4931      C4936   1.407       .  A
C4932      C4933   1.416       .  A
C4933      C4934   1.411       .  A
C4933      N4940   1.432   1_655  S
C4934      H4939   1.084       .  S
C4934      C4935   1.404       .  A
C4935      C4936   1.418       .  A
C4936      N4937   1.439       .  S
N4937      H4941   1.046       .  S
N4937      H4942   1.043       .  S
N4940      H4943   1.046       .  S
N4940      H4944   1.046       .  S
C4945      H4952   1.084       .  S
C4945      C4946   1.408       .  A
C4945      C4950   1.406       .  A
C4946      C4947   1.413       .  A
C4947      C4948   1.406       .  A
C4947      N4954   1.432   1_655  S
C4948      H4953   1.084       .  S
C4948      C4949   1.403       .  A
C4949      C4950   1.406       .  A
C4950      N4951   1.432       .  S
N4951      H4956   1.046       .  S
N4954      H4957   1.046       .  S
N4954      H4958   1.046       .  S
C4959      H4966   1.084       .  S
C4959      C4960   1.404       .  A
C4959      C4964   1.408       .  A
C4960      C4961   1.417       .  A
C4961      C4962   1.404       .  A
C4961      N4968   1.438       .  S
C4962      H4967   1.084       .  S
C4962      C4963   1.409       .  A
C4963      C4964   1.417       .  A
C4964      N4965   1.438       .  S
N4965      H4969   1.046       .  S
N4965      H4970   1.046       .  S
N4968      H4971   1.042       .  S
N4968      H4972   1.046       .  S
C4973      H4980   1.084       .  S
C4973      C4974   1.399       .  A
C4973      C4978   1.399       .  A
C4974      C4975   1.407       .  A
C4975      C4976   1.404       .  A
C4975      N4982   1.437       .  S
C4976      H4981   1.083       .  S
C4976      C4977   1.409       .  A
C4977      C4978   1.422       .  A
N4979      H4984   1.045       .  S
N4982      H4985   1.046       .  S
N4982      H4986   1.045       .  S
C4987      H4994   1.084       .  S
C4987      C4988   1.400       .  A
C4987      C4992   1.396       .  A
C4988      C4989   1.401       .  A
C4989      C4990   1.397       .  A
C4989      N4996   1.432       .  S
C4990      H4995   1.084       .  S
C4990      C4991   1.408       .  A
C4991      C4992   1.420       .  A
C4992      N4993   1.433       .  S
N4993      H4997   1.044       .  S
N4993      H4998   1.045       .  S
N4996      H4999   1.045       .  S
N4996      H5000   1.045       .  S
C5001      H5008   1.084       .  S
C5001      C5002   1.399       .  A
C5001      C5006   1.405       .  A
C5002      C5003   1.413       .  A
C5003      C5004   1.399       .  A
C5003      N5010   1.439       .  S
C5004      H5009   1.084       .  S
C5004      C5005   1.408       .  A
C5005      C5006   1.419       .  A
C5006      N5007   1.438       .  S
N5007      H5011   1.046       .  S
N5007      H5012   1.046       .  S
N5010      H5013   1.043       .  S
N5010      H5014   1.046       .  S
C5015      H5022   1.084       .  S
C5015      C5016   1.401       .  A
C5015      C5020   1.405       .  A
C5016      C5017   1.407       .  A
C5017      N5024   1.432       .  S
C5018      H5023   1.084       .  S
C5019      C5020   1.415       .  A
C5020      N5021   1.433       .  S
N5021      H5025   1.046       .  S
N5021      H5026   1.046       .  S
N5024      H5027   1.046       .  S
C5029      H5036   1.084       .  S
C5029      C5030   1.408       .  A
C5029      C5034   1.401       .  A
C5030      C5031   1.415       .  A
C5031      C5032   1.398       .  A
C5031      N5038   1.433       .  S
C5032      H5037   1.084       .  S
C5032      C5033   1.399       .  A
C5033      C5034   1.414       .  A
C5034      N5035   1.438       .  S
N5035      H5039   1.045       .  S
N5035      H5040   1.042       .  S
N5038      H5041   1.046       .  S
N5038      H5042   1.046       .  S
C5043      H5050   1.084       .  S
C5043      C5044   1.408       .  A
C5043      C5048   1.398       .  A
C5044      C5045   1.412       .  A
C5045      C5046   1.409       .  A
C5045      N5052   1.437       .  S
C5046      H5051   1.084       .  S
C5046      C5047   1.406       .  A
C5047      C5048   1.415       .  A
C5048      N5049   1.438       .  S
N5049      H5053   1.045       .  S
N5049      H5054   1.041       .  S
N5052      H5055   1.046       .  S
N5052      H5056   1.046       .  S
C5057      H5064   1.084       .  S
C5057      C5058   1.409       .  A
C5057      C5062   1.395       .  A
C5058      C5059   1.417       .  A
C5060      H5065   1.084       .  S
C5061      C5062   1.407       .  A
C5062      N5063   1.433       .  S
N5063      H5067   1.045       .  S
N5063      H5068   1.045       .  S
N5066      H5069   1.046       .  S
N5066      H5070   1.046       .  S
C5071      H5078   1.084       .  S
C5071      C5072   1.407       .  A
C5071      C5076   1.397       .  A
C5072      C5073   1.415       .  A
C5073      C5074   1.401       .  A
C5073      N5080   1.432       .  S
C5074      H5079   1.084       .  S
C5074      C5075   1.404       .  A
C5075      C5076   1.413       .  A
C5076      N5077   1.440       .  S
N5077      H5081   1.046       .  S
N5077      H5082   1.043       .  S
N5080      H5083   1.044       .  S
N5080      H5084   1.046       .  S
C5085      H5092   1.083       .  S
C5086      C5087   1.414       .  A
C5087      C5088   1.401       .  A
C5087      N5094   1.433       .  S
C5088      H5093   1.084       .  S
C5088      C5089   1.402       .  A
C5089      C5090   1.410       .  A
N5091      H5095   1.044       .  S
N5094      H5097   1.046       .  S
N5094      H5098   1.046       .  S
C5099      H5106   1.083       .  S
C5099      C5100   1.410       .  A
C5099      C5104   1.409       .  A
C5100      C5101   1.414       .  A
C5101      C5102   1.402       .  A
C5101      N5108   1.432       .  S
C5102      H5107   1.084       .  S
C5102      C5103   1.401       .  A
C5103      C5104   1.409       .  A
C5104      N5105   1.438       .  S
N5105      H5109   1.046       .  S
N5105      H5110   1.046       .  S
N5108      H5111   1.046       .  S
N5108      H5112   1.046       .  S
