geometry optimzed in LAMMPS
_audit_creation_date              2020-11-30 
_audit_creation_method            'lammps2cif' 
_symmetry_space_group_name_H-M    'P1' 
_symmetry_Int_Tables_number       1 
_symmetry_cell_setting            triclinic 
loop_ 
_symmetry_equiv_pos_as_xyz 
  x,y,z 
_cell_length_a                    42.4343227302573 
_cell_length_b                    42.44237672064902 
_cell_length_c                    48.79786538732957 
_cell_angle_alpha                 89.90966312842694 
_cell_angle_beta                  90.02257087104607 
_cell_angle_gamma                 120.0907574956335 
loop_ 
_atom_site_label 
_atom_site_type_symbol 
_atom_site_fract_x 
_atom_site_fract_y 
_atom_site_fract_z 
_atom_site_charge 
Zr1        Zr  0.86354348  0.13763254  0.63648185     2.17510
O2          O  0.89974904  0.10762739  0.63791685    -0.50610
O3          O  0.86190663  0.13998580  0.58667966    -0.73640
O4          O  0.82687283  0.07251374  0.62763828    -0.80420
O5          O  0.94881850  0.23107787  0.64604179    -0.82170
O6          O  0.76926853  0.05224456  0.64301450    -0.77790
O7          O  0.92891415  0.17417992  0.62930508    -0.89430
O8          O  0.83042945  0.16814619  0.57479750    -0.75390
O9          O  0.80497274  0.12884889  0.62565375    -0.84880
O10         O  0.87235720  0.19639940  0.62635786    -0.84570
O11         O  0.82707436  0.10994216  0.67658489    -0.71330
O12         O  0.88957730  0.17317150  0.67711410    -0.83460
Zr13       Zr  0.80218724  0.19670041  0.69610437     2.26420
Zr14       Zr  0.76866183  0.10273360  0.66580730     2.06270
Zr15       Zr  0.89720150  0.23176305  0.66695626     2.10050
Zr16       Zr  0.81383788  0.18768812  0.61612086     1.78760
O17         O  0.94736739  0.25762887  0.69955658    -0.92270
O18         O  0.75724886  0.15444958  0.59042182    -0.40080
O19         O  0.83886907  0.22433043  0.65623438    -0.76710
O20         O  0.77595125  0.16118946  0.65550780    -0.95390
O21         O  0.79343007  0.13805070  0.70634481    -0.88700
O22         O  0.86073203  0.20537991  0.70679213    -0.91540
C23         C  0.84809648  0.15189562  0.56885931     1.02210
C24         C  0.95399407  0.20717898  0.63396184     1.15140
C25         C  0.79359482  0.04742809  0.63128514     1.05920
O26         O  0.71643234  0.07549308  0.63508581    -0.93700
O27         O  0.71725890  0.10300656  0.68759979    -0.89440
O28         O  0.73787218  0.15881139  0.70662108    -0.82580
C29         C  0.71250532  0.12621707  0.70118154     1.12560
O30         O  0.88557175  0.11434502  0.72186352    -0.95670
Zr31       Zr  0.85189052  0.14665550  0.71669388     1.88940
O32         O  0.80388581  0.19515636  0.74586601    -0.72320
O33         O  0.74276525  0.05199019  0.69802620    -0.51580
O34         O  0.81412628  0.08929455  0.74061534    -0.96260
O35         O  0.90672792  0.17983817  0.74446697    -0.53480
O36         O  0.83200806  0.16360159  0.75788841    -0.72830
C37         C  0.81567377  0.18127370  0.76372894     0.99510
O38         O  0.76844417  0.22885333  0.68979946    -0.61660
O39         O  0.92460040  0.28411998  0.63623153    -0.56460
O40         O  0.83832462  0.26128889  0.70610799    -0.93140
O41         O  0.89506730  0.28228088  0.68854643    -0.91570
O42         O  0.85129444  0.24370374  0.59061341    -0.91920
O43         O  0.78341614  0.22282845  0.60929819    -0.90710
C44         C  0.87111603  0.28674754  0.70133520     1.18350
H45         H  0.88871875  0.20737710  0.61103414     0.34300
H46         H  0.75250406  0.15889347  0.65190474     0.45150
H47         H  0.87125709  0.22145583  0.72229157     0.38670
H48         H  0.82497048  0.08654013  0.68000047     0.35150
H49         H  0.76265228  0.16656046  0.57228370     0.26940
H50         H  0.72108806  0.03256712  0.68853964     0.32880
H51         H  0.82192512  0.09438384  0.76000743     0.38790
H52         H  0.84159280  0.23824282  0.57168949     0.33250
H53         H  0.94981999  0.29934755  0.64304569     0.32120
H54         H  0.96403485  0.28250252  0.69259934     0.33810
H55         H  0.89915335  0.17016635  0.76327263     0.32770
H56         H  0.77201426  0.22186343  0.62720369     0.36770
H57         H  0.78380010  0.24952898  0.67750107     0.29500
H58         H  0.89499162  0.09429935  0.62036958     0.33740
H59         H  0.88440167  0.10839853  0.74160115     0.36590
H60         H  0.92736176  0.27449434  0.61848278     0.29200
H61         H  0.74736796  0.21267529  0.67814261     0.42070
H62         H  0.72655086  0.07446555  0.61705009     0.32130
H63         H  0.75483748  0.13041136  0.58672098     0.39740
H64         H  0.91131784  0.20508460  0.74543999     0.31590
H65         H  0.76025500  0.04301154  0.69848857     0.31660
H66         H  0.88825634  0.08851310  0.65215474     0.31920
C67         C  0.81894635  0.23907963  0.92001410     0.04030
C68         C  0.78820274  0.21239886  0.93412648    -0.12120
C69         C  0.76245637  0.18056044  0.92075416     0.01530
C70         C  0.76790311  0.17489349  0.89331231    -0.10650
C71         C  0.79831935  0.20129078  0.87888783     0.04020
C72         C  0.82369076  0.23328648  0.89233259    -0.10070
H73         H  0.78389084  0.21655443  0.95538808     0.09610
H74         H  0.74748332  0.15074915  0.88279055     0.07140
H75         H  0.84679060  0.25401832  0.88101723     0.06990
C76         C  0.84626071  0.09353079  0.41396727     0.04030
C77         C  0.84084452  0.10139519  0.44088997    -0.12120
C78         C  0.86697214  0.13331219  0.45385725     0.01530
C79         C  0.89829509  0.15808002  0.43945914    -0.10650
C80         C  0.90368846  0.15082459  0.41239797     0.04020
C81         C  0.87765582  0.11856743  0.39963950    -0.10070
H82         H  0.81695293  0.08185356  0.45219033     0.09610
H83         H  0.91897623  0.18248632  0.44955429     0.07140
H84         H  0.88264850  0.11223576  0.37915075     0.06990
Zr85       Zr  0.94150532  0.46966322  0.96953475     2.17510
O86         O  0.87513265  0.43372334  0.97027475    -0.50430
O87         O  0.94644321  0.47210541  0.91974370    -0.73640
O88         O  0.91357725  0.50643665  0.96012792    -0.80420
O89         O  0.94964176  0.38456315  0.97771081    -0.82170
O90         O  0.94936693  0.56314384  0.97724139    -0.77790
O91         O  0.91212552  0.40446380  0.96202005    -0.89430
O92         O  0.00627501  0.50082118  0.90811311    -0.75390
O93         O  0.99152697  0.52832413  0.95916894    -0.84880
O94         O  0.99144360  0.46089536  0.95958172    -0.84570
O95         O  0.94975655  0.50535334  0.00991786    -0.71330
O96         O  0.95028561  0.44304346  0.01018436    -0.83460
Zr97       Zr  0.06153872  0.52994873  0.02985948     2.26420
Zr98       Zr  0.00109340  0.56390036  0.99955963     2.06270
Zr99       Zr  0.00115005  0.43535151  0.00012553     2.10050
Zr100      Zr  0.04160240  0.51952630  0.94985952     1.78760
O101        O  0.97485192  0.38444788  0.03213841    -0.92270
O102        O  0.06288489  0.57530179  0.92338523    -0.40080
O103        O  0.05257997  0.49371784  0.98984096    -0.76710
O104        O  0.05244209  0.55676456  0.98945300    -0.95390
O105        O  0.01157138  0.53866388  0.03995094    -0.88700
O106        O  0.01128903  0.47136631  0.04018606    -0.91540
C107        C  0.97235148  0.48431046  0.90203834     1.02210
C108        C  0.92042255  0.37957085  0.96593543     1.15140
C109        C  0.92083045  0.53921620  0.96452353     1.05920
O110        O  0.02658887  0.61607038  0.96870398    -0.93700
O111        O  0.05240421  0.61472626  0.02223129    -0.89440
O112        O  0.08827150  0.59429621  0.04044698    -0.82580
C113        C  0.08061496  0.61946668  0.03551563     1.12560
O114        O  0.89535879  0.44610207  0.05517424    -0.95670
Zr115      Zr  0.96144080  0.48021921  0.05002885     1.88940
O116        O  0.05795833  0.52759498  0.07959775    -0.72320
O117        O  0.97652977  0.59008295  0.03161240    -0.51580
O118        O  0.94148599  0.51776264  0.07359569    -0.96260
O119        O  0.93981445  0.42533853  0.07781045    -0.53480
O120        O  0.99815648  0.50032972  0.09140956    -0.72830
C121        C  0.03218551  0.51623234  0.09735898     0.99510
O122        O  0.12768168  0.56418258  0.02443986    -0.61660
O123        O  0.02698828  0.40842704  0.96996590    -0.56460
O124        O  0.08960950  0.49313502  0.03903972    -0.93140
O125        O  0.05262646  0.43606799  0.02237023    -0.91570
O126        O  0.06317106  0.48383625  0.92560623    -0.91920
O127        O  0.10743314  0.55302586  0.94378933    -0.90710
C128        C  0.08149799  0.46004855  0.03466705     1.18350
H129        H  0.98621223  0.44471381  0.94419815     0.34300
H130        H  0.07366770  0.58027178  0.98602395     0.45150
H131        H  0.01667156  0.46062497  0.05565303     0.38670
H132        H  0.92837685  0.50733173  0.01323500     0.35150
H133        H  0.06976742  0.56992639  0.90533580     0.26940
H134        H  0.97874781  0.61166477  0.02199265     0.32880
H135        H  0.93909250  0.51030315  0.09306862     0.38790
H136        H  0.06843901  0.49394922  0.90678350     0.33250
H137        H  0.01546147  0.38265577  0.97583874     0.32120
H138        H  0.98346965  0.36797896  0.02562828     0.33810
H139        H  0.93761768  0.43282093  0.09659746     0.32770
H140        H  0.11733827  0.55530044  0.96250629     0.36770
H141        H  0.13365080  0.54867979  0.01295959     0.29500
H142        H  0.86703947  0.43780800  0.95224850     0.33740
H143        H  0.89054915  0.44746085  0.07486676     0.36590
H144        H  0.01638617  0.40747695  0.95170133     0.29200
H145        H  0.13258390  0.58468472  0.01210217     0.42070
H146        H  0.01446807  0.60617506  0.95089794     0.32130
H147        H  0.04068315  0.57668318  0.91962247     0.39740
H148        H  0.96053467  0.42086453  0.07886586     0.31590
H149        H  0.95001921  0.57258587  0.03222669     0.31660
H150        H  0.86723950  0.44581956  0.98373184     0.31920
C151        C  0.91336479  0.48623742  0.74776758     0.04030
C152        C  0.90444510  0.45333517  0.73447273    -0.12120
C153        C  0.91192583  0.42786053  0.74693954     0.01530
C154        C  0.92699413  0.43474748  0.77335739    -0.10650
C155        C  0.93525507  0.46693809  0.78699597     0.04020
C156        C  0.93006857  0.49317061  0.77364913    -0.10070
H157        H  0.89100361  0.44704759  0.71474160     0.09610
H158        H  0.93064463  0.41425579  0.78383295     0.07140
H159        H  0.93801010  0.51858111  0.78407946     0.06990
C160        C  0.08629676  0.51496098  0.25423383     0.04030
C161        C  0.07573882  0.50985152  0.22656335    -0.12120
C162        C  0.07027198  0.53559752  0.21251634     0.01530
C163        C  0.07545201  0.56675315  0.22640827    -0.10650
C164        C  0.08608235  0.57237633  0.25402839     0.04020
C165        C  0.09101244  0.54615446  0.26791692    -0.10070
H166        H  0.07252422  0.48615465  0.21572433     0.09610
H167        H  0.07268627  0.58741931  0.21537176     0.07140
H168        H  0.09899381  0.55030781  0.28929127     0.06990
Zr169      Zr  0.47011024  0.94076284  0.03103864     2.17510
O170        O  0.43314486  0.87448668  0.03044579    -0.50430
O171        O  0.47351278  0.94522402  0.08080418    -0.73640
O172        O  0.50625495  0.91159514  0.03925790    -0.80420
O173        O  0.38520028  0.94964682  0.02203288    -0.82170
O174        O  0.56365908  0.94876157  0.02336334    -0.77790
O175        O  0.40491874  0.91245267  0.03874050    -0.89430
O176        O  0.50240081  0.00506700  0.09234337    -0.75390
O177        O  0.52910639  0.99043445  0.04106880    -0.84880
O178        O  0.46203683  0.99118268  0.04111202    -0.84570
O179        O  0.50545613  0.94873295  0.99047844    -0.71330
O180        O  0.44338451  0.95034302  0.99078554    -0.83460
Zr181      Zr  0.53129689  0.06033433  0.97020552     2.26420
Zr182      Zr  0.56437253  0.99981800  0.00045600     2.06270
Zr183      Zr  0.43679040  0.00197181  0.00078923     2.10050
Zr184      Zr  0.52096549  0.04081400  0.05059852     1.78760
O185        O  0.38637308  0.97849641  0.96843810    -0.92270
O186        O  0.57678782  0.06195355  0.07691565    -0.40080
O187        O  0.49578055  0.05255124  0.01056085    -0.76710
O188        O  0.55790347  0.05138444  0.01074361    -0.95390
O189        O  0.53895392  0.00986808  0.96004595    -0.88700
O190        O  0.47209928  0.01085352  0.96048124    -0.91540
C191        C  0.48597722  0.97111697  0.09846823     1.02210
C192        C  0.37995247  0.92051076  0.03417953     1.15140
C193        C  0.53942215  0.91967962  0.03529547     1.05920
O194        O  0.61723833  0.02447306  0.03052797    -0.93700
O195        O  0.61587335  0.05134416  0.97841638    -0.89440
O196        O  0.59560513  0.08708873  0.95987930    -0.82580
C197        C  0.62080634  0.07960362  0.96508597     1.12560
O198        O  0.44617631  0.89413988  0.94653225    -0.95670
Zr199      Zr  0.47979384  0.96032986  0.95067866     1.88940
O200        O  0.53033135  0.05626476  0.92047770    -0.72320
O201        O  0.58913112  0.97435377  0.96794356    -0.51580
O202        O  0.51662686  0.94073745  0.92561603    -0.96260
O203        O  0.42371864  0.93789505  0.92433862    -0.53480
O204        O  0.49755534  0.99644109  0.90900322    -0.72830
C205        C  0.51602034  0.03037766  0.90283495     0.99510
O206        O  0.56473207  0.12648226  0.97535921    -0.61660
O207        O  0.41012597  0.02708470  0.03190840    -0.56460
O208        O  0.49484882  0.08767325  0.95855695    -0.93140
O209        O  0.43983659  0.05560875  0.97970685    -0.91570
O210        O  0.48518449  0.06227128  0.07487818    -0.91920
O211        O  0.55469157  0.10657023  0.05691691    -0.90710
C212        C  0.46310606  0.08216089  0.96481798     1.18350
H213        H  0.44598265  0.98605611  0.05658961     0.34300
H214        H  0.58150516  0.07250099  0.01408124     0.45150
H215        H  0.46137302  0.01631380  0.94504862     0.38670
H216        H  0.50721884  0.92725578  0.98708620     0.35150
H217        H  0.57142610  0.06870500  0.09502117     0.26940
H218        H  0.61080222  0.97632488  0.97722650     0.32880
H219        H  0.50831865  0.93825119  0.90636641     0.38790
H220        H  0.49485582  0.06690689  0.09381684     0.33250
H221        H  0.38487915  0.01732812  0.02524091     0.32120
H222        H  0.37002199  0.98689787  0.97562557     0.33810
H223        H  0.43010207  0.93411200  0.90558889     0.32770
H224        H  0.55692215  0.11665547  0.03825433     0.36770
H225        H  0.54865159  0.13231551  0.98626700     0.29500
H226        H  0.43828782  0.86608768  0.04794593     0.33740
H227        H  0.44672647  0.88892354  0.92682256     0.36590
H228        H  0.40739022  0.01451466  0.04960015     0.29200
H229        H  0.58489165  0.13162747  0.98812441     0.42070
H230        H  0.60727359  0.01434213  0.04885212     0.32130
H231        H  0.57817625  0.03973347  0.08057381     0.39740
H232        H  0.41985684  0.95894871  0.92255982     0.31590
H233        H  0.57132948  0.94791512  0.96760664     0.31660
H234        H  0.44396679  0.86640182  0.01605946     0.31920
C235        C  0.51374510  0.08529097  0.74669256     0.04030
C236        C  0.54485162  0.09031422  0.73261271    -0.12120
C237        C  0.57093487  0.08471011  0.74595016     0.01530
C238        C  0.56559090  0.07331041  0.77335507    -0.10650
C239        C  0.53474304  0.06817858  0.78767417     0.04020
C240        C  0.50894891  0.07415138  0.77425919    -0.10070
H241        H  0.54915590  0.09911284  0.71140820     0.09610
H242        H  0.58599121  0.06946503  0.78377085     0.07140
H243        H  0.48586508  0.07153477  0.78569461     0.06990
C244        C  0.48675432  0.91579400  0.25502787     0.04030
C245        C  0.49314239  0.92810428  0.22783606    -0.12120
C246        C  0.46761338  0.93375047  0.21370230     0.01530
C247        C  0.43576384  0.92740616  0.22717781    -0.10650
C248        C  0.42909906  0.91499990  0.25439801     0.04020
C249        C  0.45483061  0.90947207  0.26836843    -0.10070
H250        H  0.51743777  0.93210869  0.21740124     0.09610
H251        H  0.41538111  0.93062351  0.21612478     0.07140
H252        H  0.44917098  0.89849120  0.28900071     0.06990
Zr253      Zr  0.19624569  0.80366853  0.30280596     2.17510
O254        O  0.23207892  0.77326392  0.30411264    -0.50430
O255        O  0.19427293  0.80604200  0.25306975    -0.73640
O256        O  0.15894232  0.73863891  0.29413990    -0.80420
O257        O  0.28298402  0.89596291  0.31261250    -0.82170
O258        O  0.10166959  0.71891803  0.31004925    -0.77790
O259        O  0.26119858  0.83955102  0.29445340    -0.89430
O260        O  0.16286856  0.83437717  0.24133636    -0.75390
O261        O  0.13797371  0.79578998  0.29225988    -0.84880
O262        O  0.20610068  0.86286318  0.29292715    -0.84570
O263        O  0.16003468  0.77626108  0.34301674    -0.71330
O264        O  0.22338648  0.83900909  0.34331994    -0.83460
Zr265      Zr  0.13763904  0.86409333  0.36339137     2.26420
Zr266      Zr  0.10193049  0.77008390  0.33257900     2.06270
Zr267      Zr  0.23197978  0.89807416  0.33348445     2.10050
Zr268      Zr  0.14786169  0.85505410  0.28301280     1.78760
O269        O  0.28215249  0.92372657  0.36608378    -0.92270
O270        O  0.09066607  0.82292508  0.25790909    -0.40080
O271        O  0.17380379  0.89139136  0.32322489    -0.76710
O272        O  0.11036356  0.82910599  0.32271207    -0.95390
O273        O  0.12785228  0.80499818  0.37315349    -0.88700
O274        O  0.19594175  0.87192109  0.37357610    -0.91540
C275        C  0.18038985  0.81796437  0.23533464     1.02210
C276        C  0.28707739  0.87202090  0.29948928     1.15140
C277        C  0.12568219  0.71374854  0.29814723     1.05920
O278        O  0.04966678  0.74323655  0.30187735    -0.93700
O279        O  0.05114265  0.77185208  0.35418540    -0.89440
O280        O  0.07391186  0.82667312  0.37548916    -0.82580
C281        C  0.04779688  0.79479520  0.36927897     1.12560
O282        O  0.21880210  0.77930395  0.38713105    -0.95670
Zr283      Zr  0.18607194  0.81270351  0.38308266     1.88940
O284        O  0.13969032  0.86202695  0.41311189    -0.72320
O285        O  0.07515141  0.71963365  0.36502456    -0.51580
O286        O  0.14814499  0.75558168  0.40724483    -0.96260
O287        O  0.24139585  0.84498221  0.41046493    -0.53480
O288        O  0.16725381  0.82986654  0.42470752    -0.72830
C289        C  0.15125467  0.84776968  0.43083082     0.99510
O290        O  0.10425640  0.89680308  0.35835739    -0.61660
O291        O  0.26022055  0.95009890  0.30247878    -0.56460
O292        O  0.17479815  0.92847524  0.37356093    -0.93140
O293        O  0.23063954  0.94942964  0.35454907    -0.91570
O294        O  0.18592902  0.91063710  0.25721148    -0.91920
O295        O  0.11869632  0.89146816  0.27675109    -0.90710
C296        C  0.20725978  0.95408205  0.36804366     1.18350
H297        H  0.22232249  0.87359708  0.27749734     0.34300
H298        H  0.08711082  0.82739549  0.31939727     0.45150
H299        H  0.20681532  0.88789745  0.38908321     0.38670
H300        H  0.15754776  0.75267537  0.34631916     0.35150
H301        H  0.09615322  0.83463498  0.23961623     0.26940
H302        H  0.05360270  0.70021016  0.35541858     0.32880
H303        H  0.15673175  0.76047965  0.42646853     0.38790
H304        H  0.17586960  0.90526947  0.23838852     0.33250
H305        H  0.28540787  0.96514574  0.30940530     0.32120
H306        H  0.29931514  0.94826455  0.35878523     0.33810
H307        H  0.23401178  0.83509551  0.42923852     0.32770
H308        H  0.10863752  0.89167832  0.29500409     0.36770
H309        H  0.11918277  0.91724180  0.34573927     0.29500
H310        H  0.22698583  0.75974352  0.28663022     0.33740
H311        H  0.21817406  0.77338923  0.40683197     0.36590
H312        H  0.26299912  0.94020101  0.28486617     0.29200
H313        H  0.08244074  0.88060547  0.34735648     0.42070
H314        H  0.05961577  0.74162286  0.28392215     0.32130
H315        H  0.08724199  0.79841748  0.25449358     0.39740
H316        H  0.24631877  0.87032262  0.41175618     0.31590
H317        H  0.09252073  0.71052572  0.36589876     0.31660
H318        H  0.22062560  0.75430558  0.31846406     0.31920
C319        C  0.23840366  0.81925307  0.07918726     0.04030
C320        C  0.21265698  0.78726910  0.06587979    -0.12120
C321        C  0.18092644  0.76161534  0.07955623     0.01530
C322        C  0.17490687  0.76825763  0.10665494    -0.10650
C323        C  0.20047589  0.79993831  0.12028291     0.04020
C324        C  0.23198411  0.82548535  0.10633029    -0.10070
H325        H  0.21750755  0.78210871  0.04499889     0.09610
H326        H  0.15113651  0.74786235  0.11759428     0.07140
H327        H  0.25207396  0.84975704  0.11689865     0.06990
C328        C  0.15121321  0.90434448  0.58671147     0.04030
C329        C  0.15695549  0.89824954  0.55940991    -0.12120
C330        C  0.13197646  0.86624028  0.54593736     0.01530
C331        C  0.10108053  0.84000981  0.55999474    -0.10650
C332        C  0.09472634  0.84585167  0.58726969     0.04020
C333        C  0.12029189  0.87790407  0.60069682    -0.10070
H334        H  0.18058869  0.91883192  0.54844227     0.09610
H335        H  0.08099574  0.81596224  0.54919215     0.07140
H336        H  0.11537090  0.88297586  0.62158190     0.06990
Zr337      Zr  0.80248582  0.60683272  0.69785994     2.17510
O338        O  0.76753951  0.54056694  0.69522632    -0.50430
O339        O  0.80477832  0.61139038  0.74758835    -0.73640
O340        O  0.84029426  0.58066297  0.70921601    -0.80420
O341        O  0.71618079  0.61251922  0.68638542    -0.82170
O342        O  0.89527621  0.61355158  0.68808578    -0.77790
O343        O  0.73797358  0.57959432  0.70780773    -0.89430
O344        O  0.83869451  0.67121054  0.75874363    -0.75390
O345        O  0.86148221  0.65668925  0.70737920    -0.84880
O346        O  0.79391041  0.65690745  0.70746492    -0.84570
O347        O  0.83763336  0.61446199  0.65720943    -0.71330
O348        O  0.77548387  0.61509924  0.65724503    -0.83460
Zr349      Zr  0.86246917  0.72612170  0.63644110     2.26420
Zr350      Zr  0.89643329  0.66582871  0.66664830     2.06270
Zr351      Zr  0.76803609  0.66617702  0.66684101     2.10050
Zr352      Zr  0.85284631  0.70670994  0.71682042     1.78760
O353        O  0.71738559  0.64273982  0.63469475    -0.92270
O354        O  0.91057535  0.73173318  0.74118411    -0.40080
O355        O  0.82669659  0.71738922  0.67678729    -0.76710
O356        O  0.88954308  0.71727261  0.67680600    -0.95390
O357        O  0.87081310  0.67593202  0.62638396    -0.88700
O358        O  0.80370597  0.67583503  0.62666158    -0.91540
C359        C  0.82016492  0.63734062  0.76508364     1.02210
C360        C  0.71221744  0.58569780  0.70113388     1.15140
C361        C  0.87232472  0.58693431  0.70296797     1.05920
O362        O  0.94838477  0.69073898  0.69763800    -0.93700
O363        O  0.94730860  0.71706190  0.64397785    -0.89440
O364        O  0.92696511  0.75303062  0.62577811    -0.82580
C365        C  0.95210723  0.74532314  0.63074114     1.12560
O366        O  0.77794499  0.55954593  0.61238379    -0.95670
Zr367      Zr  0.81212700  0.62564479  0.61715997     1.88940
O368        O  0.85897371  0.72160957  0.58667073    -0.72320
O369        O  0.92285089  0.64186788  0.63427694    -0.51580
O370        O  0.84932460  0.60527659  0.59355746    -0.96260
O371        O  0.75675741  0.60380543  0.59000390    -0.53480
O372        O  0.83154983  0.66158823  0.57547542    -0.72830
C373        C  0.84720466  0.69548196  0.56920470     0.99510
O374        O  0.89640954  0.79228995  0.64158723    -0.61660
O375        O  0.74136031  0.69049392  0.69868028    -0.56460
O376        O  0.82584922  0.75438739  0.62728249    -0.93140
O377        O  0.76919415  0.71820343  0.64499688    -0.91570
O378        O  0.81585931  0.72484584  0.74321101    -0.91920
O379        O  0.88279691  0.77247634  0.72256221    -0.90710
C380        C  0.79301371  0.74676136  0.63221554     1.18350
H381        H  0.77795523  0.65185488  0.72299637     0.34300
H382        H  0.91311865  0.73847723  0.68003544     0.45150
H383        H  0.79282326  0.68108839  0.61122455     0.38670
H384        H  0.83945686  0.59296772  0.65406934     0.35150
H385        H  0.90548235  0.73778322  0.75964566     0.26940
H386        H  0.94396818  0.64325742  0.64404703     0.32880
H387        H  0.84190010  0.60297342  0.57409030     0.38790
H388        H  0.82642098  0.72964614  0.76187564     0.33250
H389        H  0.71712551  0.68323355  0.69086396     0.32120
H390        H  0.70055330  0.65021565  0.64240706     0.33810
H391        H  0.76392253  0.60153948  0.57112001     0.32770
H392        H  0.89305093  0.78252014  0.70428496     0.36770
H393        H  0.88121436  0.79802483  0.65364795     0.29500
H394        H  0.77073184  0.53182265  0.71327218     0.33740
H395        H  0.77893918  0.55461158  0.59267022     0.36590
H396        H  0.73599564  0.67555662  0.71548417     0.29200
H397        H  0.91745821  0.79746631  0.65336165     0.42070
H398        H  0.93854556  0.67762388  0.71515081     0.32130
H399        H  0.91408406  0.71063754  0.74427847     0.39740
H400        H  0.75220771  0.62447980  0.58904998     0.31590
H401        H  0.90501241  0.61549330  0.63305251     0.31660
H402        H  0.78097826  0.53380959  0.68213100     0.31920
C403        C  0.82031235  0.58159991  0.92142743     0.04030
C404        C  0.82632337  0.59397949  0.89423436    -0.12120
C405        C  0.80139059  0.60113124  0.88071734     0.01530
C406        C  0.77033551  0.59601290  0.89486621    -0.10650
C407        C  0.76390477  0.58330462  0.92198900     0.04020
C408        C  0.78911944  0.57639294  0.93534412    -0.10070
H409        H  0.84968046  0.59650547  0.88324074     0.09610
H410        H  0.75044001  0.60066891  0.88448623     0.07140
H411        H  0.78357221  0.56526848  0.95593115     0.06990
C412        C  0.90623113  0.75411069  0.41446459     0.04030
C413        C  0.89767135  0.73955997  0.44109295    -0.12120
C414        C  0.86514250  0.73240628  0.45387120     0.01530
C415        C  0.84008772  0.73826811  0.43922291    -0.10650
C416        C  0.84791759  0.75248583  0.41251244     0.04020
C417        C  0.88109031  0.76044435  0.40025251    -0.10070
H418        H  0.91704465  0.73499535  0.45232761     0.09610
H419        H  0.81494089  0.73293642  0.44897820     0.07140
H420        H  0.88768078  0.77246112  0.37997061     0.06990
Zr421      Zr  0.13631030  0.27368012  0.36423126     2.17510
O422        O  0.10076123  0.20743951  0.36149393    -0.50430
O423        O  0.13722031  0.27702087  0.41399431    -0.73640
O424        O  0.17346456  0.24610096  0.37356368    -0.80420
O425        O  0.05011743  0.27956949  0.35485336    -0.82170
O426        O  0.23037658  0.28304859  0.35678191    -0.77790
O427        O  0.07134845  0.24435594  0.37255055    -0.89430
O428        O  0.16956675  0.33665792  0.42609333    -0.75390
O429        O  0.19473489  0.32382022  0.37499665    -0.84880
O430        O  0.12681759  0.32303523  0.37459751    -0.84570
O431        O  0.17259975  0.28310881  0.32397959    -0.71330
O432        O  0.10951593  0.28259405  0.32379332    -0.83460
Zr433      Zr  0.19564986  0.39414760  0.30467872     2.26420
Zr434      Zr  0.23083099  0.33474518  0.33467263     2.06270
Zr435      Zr  0.10113917  0.33293842  0.33418449     2.10050
Zr436      Zr  0.18520451  0.37323614  0.38476456     1.78760
O437        O  0.05018600  0.30805243  0.30227653    -0.92270
O438        O  0.24227949  0.39731110  0.40990884    -0.40080
O439        O  0.15930087  0.38438391  0.34483056    -0.76710
O440        O  0.22275736  0.38539836  0.34507167    -0.95390
O441        O  0.20520567  0.34484309  0.29435007    -0.88700
O442        O  0.13735632  0.34376867  0.29410633    -0.91540
C443        C  0.15141260  0.30260435  0.43186118     1.02210
C444        C  0.04557425  0.25106840  0.36758924     1.15140
C445        C  0.20650372  0.25409466  0.36916798     1.05920
O446        O  0.28300097  0.35981525  0.36545690    -0.93700
O447        O  0.28169968  0.38744988  0.31300567    -0.89440
O448        O  0.25934918  0.42045046  0.29261618    -0.82580
C449        C  0.28528604  0.41427566  0.29837332     1.12560
O450        O  0.11444532  0.22843121  0.27896553    -0.95670
Zr451      Zr  0.14700065  0.29450200  0.28403793     1.88940
O452        O  0.19362275  0.39118876  0.25490733    -0.72320
O453        O  0.25756515  0.31129024  0.30215946    -0.51580
O454        O  0.18519624  0.27613728  0.25951699    -0.96260
O455        O  0.09162304  0.27182564  0.25677581    -0.53480
O456        O  0.16586158  0.33160767  0.24284273    -0.72830
C457        C  0.18200234  0.36566418  0.23696467     0.99510
O458        O  0.22950320  0.46024592  0.31020218    -0.61660
O459        O  0.07394426  0.35731165  0.36547712    -0.56460
O460        O  0.15880026  0.42208191  0.29568359    -0.93140
O461        O  0.10168125  0.38462842  0.31217492    -0.91570
O462        O  0.14784579  0.39107142  0.41097342    -0.91920
O463        O  0.21510748  0.43884887  0.39144238    -0.90710
C464        C  0.12562967  0.41371873  0.29999504     1.18350
H465        H  0.11055310  0.31735877  0.39000937     0.34300
H466        H  0.24608404  0.40683633  0.34851799     0.45150
H467        H  0.12655419  0.34915987  0.27868743     0.38670
H468        H  0.17493817  0.26197092  0.32052923     0.35150
H469        H  0.23687569  0.40330395  0.42828487     0.26940
H470        H  0.27884109  0.31296250  0.31187638     0.32880
H471        H  0.17686283  0.27306220  0.24024533     0.38790
H472        H  0.15801028  0.39546211  0.42975809     0.33250
H473        H  0.04884225  0.34776141  0.35855091     0.32120
H474        H  0.03323891  0.31551787  0.30977100     0.33810
H475        H  0.09910724  0.27030388  0.23783090     0.32770
H476        H  0.22530389  0.44934649  0.37324795     0.36770
H477        H  0.21502292  0.46556565  0.32334913     0.29500
H478        H  0.10464202  0.19841565  0.37917968     0.33740
H479        H  0.11516136  0.22376708  0.25916326     0.36590
H480        H  0.07080990  0.34423653  0.38298230     0.29200
H481        H  0.25161145  0.46567842  0.32073047     0.42070
H482        H  0.27314795  0.34734400  0.38318266     0.32130
H483        H  0.24536014  0.37597073  0.41309118     0.39740
H484        H  0.08633974  0.29203139  0.25618201     0.31590
H485        H  0.23995417  0.28485207  0.30099126     0.31660
H486        H  0.11324847  0.20052654  0.34764427     0.31920
C487        C  0.18237733  0.42030173  0.08016914     0.04030
C488        C  0.17761609  0.41093714  0.10806617    -0.12120
C489        C  0.20297973  0.40501920  0.12206454     0.01530
C490        C  0.23378875  0.40923871  0.10825894    -0.10650
C491        C  0.23933390  0.41898982  0.08040900     0.04020
C492        C  0.21302524  0.42372892  0.06635536    -0.10070
H493        H  0.15442694  0.40877287  0.11907482     0.09610
H494        H  0.25411022  0.40625654  0.11959209     0.07140
H495        H  0.21661519  0.43057548  0.04475492     0.06990
C496        C  0.15195066  0.24590154  0.58774376     0.04030
C497        C  0.12108145  0.24123763  0.60193629    -0.12120
C498        C  0.09505958  0.24710410  0.58871445     0.01530
C499        C  0.10063901  0.25878726  0.56130484    -0.10650
C500        C  0.13128564  0.26349076  0.54681234     0.04020
C501        C  0.15666170  0.25682230  0.56016507    -0.10070
H502        H  0.11703662  0.23265620  0.62319076     0.09610
H503        H  0.08058344  0.26329068  0.55103865     0.07140
H504        H  0.17951988  0.25889043  0.54873879     0.06990
Zr505      Zr  0.60660864  0.80268259  0.30311283     2.17510
O506        O  0.54038713  0.76659761  0.30595343    -0.50430
O507        O  0.61076178  0.80583597  0.25339959    -0.73640
O508        O  0.57908562  0.83979652  0.29350499    -0.80420
O509        O  0.61179343  0.71603019  0.31402839    -0.82170
O510        O  0.61501591  0.89619996  0.31106314    -0.77790
O511        O  0.57917243  0.73828377  0.29280136    -0.89430
O512        O  0.67053646  0.83772669  0.24162751    -0.75390
O513        O  0.65673382  0.86124965  0.29270578    -0.84880
O514        O  0.65624739  0.79345989  0.29320004    -0.84570
O515        O  0.61524513  0.83850099  0.34346960    -0.71330
O516        O  0.61497249  0.77572133  0.34372407    -0.83460
Zr517      Zr  0.72620189  0.86208127  0.36348240     2.26420
Zr518      Zr  0.66680062  0.89691177  0.33308053     2.06270
Zr519      Zr  0.66559217  0.76757389  0.33379362     2.10050
Zr520      Zr  0.70640567  0.85200457  0.28325745     1.78760
O521        O  0.64194031  0.71741588  0.36645471    -0.92270
O522        O  0.73170079  0.90956339  0.25855704    -0.40080
O523        O  0.71698307  0.82593006  0.32335905    -0.76710
O524        O  0.71780865  0.88926918  0.32298467    -0.95390
O525        O  0.67658866  0.87126648  0.37352485    -0.88700
O526        O  0.67589657  0.80359277  0.37385213    -0.91540
C527        C  0.63653055  0.82023312  0.23563950     1.02210
C528        C  0.58507239  0.71233654  0.29928006     1.15140
C529        C  0.58648006  0.87257867  0.29819536     1.05920
O530        O  0.69204576  0.94893126  0.30207470    -0.93700
O531        O  0.71880757  0.94779702  0.35509480    -0.89440
O532        O  0.75223481  0.92584205  0.37525609    -0.82580
C533        C  0.74577851  0.95163265  0.36961472     1.12560
O534        O  0.56018298  0.78047967  0.38843927    -0.95670
Zr535      Zr  0.62630461  0.81288741  0.38357530     1.88940
O536        O  0.72252468  0.85972658  0.41323690    -0.72320
O537        O  0.64301707  0.92369621  0.36526329    -0.51580
O538        O  0.60768650  0.85090202  0.40804867    -0.96260
O539        O  0.60333043  0.75717603  0.41052638    -0.53480
O540        O  0.66286938  0.83138138  0.42503612    -0.72830
C541        C  0.69686030  0.84768370  0.43112828     0.99510
O542        O  0.79237344  0.89597498  0.35823278    -0.61660
O543        O  0.68906846  0.73974922  0.30228234    -0.56460
O544        O  0.75440808  0.82553711  0.37269841    -0.93140
O545        O  0.71829961  0.76907856  0.35483451    -0.91570
O546        O  0.72384037  0.81447912  0.25687386    -0.91920
O547        O  0.77210634  0.88119565  0.27720041    -0.90710
C548        C  0.74691978  0.79280841  0.36759446     1.18350
H549        H  0.65087064  0.77737922  0.27772978     0.34300
H550        H  0.73920613  0.91268191  0.31965187     0.45150
H551        H  0.68121402  0.79276959  0.38930090     0.38670
H552        H  0.59397643  0.84067682  0.34677516     0.35150
H553        H  0.73778769  0.90430131  0.24016507     0.26940
H554        H  0.64452689  0.94479641  0.35536520     0.32880
H555        H  0.60544339  0.84315514  0.42744315     0.38790
H556        H  0.72871175  0.82501834  0.23818540     0.33250
H557        H  0.68032398  0.71504011  0.30978774     0.32120
H558        H  0.64916886  0.70031727  0.35891388     0.33810
H559        H  0.60078425  0.76422754  0.42937449     0.32770
H560        H  0.78241805  0.89357271  0.29484982     0.36770
H561        H  0.79775050  0.88179726  0.34484153     0.29500
H562        H  0.53145106  0.76906675  0.28778132     0.33740
H563        H  0.55536965  0.78113541  0.40822400     0.36590
H564        H  0.67502070  0.73561142  0.28515329     0.29200
H565        H  0.79799376  0.91836873  0.34801325     0.42070
H566        H  0.67927307  0.93910458  0.28446595     0.32130
H567        H  0.71066817  0.91313745  0.25533712     0.39740
H568        H  0.62383725  0.75238475  0.41170119     0.31590
H569        H  0.61661037  0.90595808  0.36651960     0.31660
H570        H  0.53311436  0.77989705  0.31876436     0.31920
C571        C  0.58046055  0.81869883  0.07903485     0.04030
C572        C  0.59284514  0.82519090  0.10627251    -0.12120
C573        C  0.59907964  0.80012976  0.12045650     0.01530
C574        C  0.59311732  0.76837843  0.10714824    -0.10650
C575        C  0.58015236  0.76104464  0.08010876     0.04020
C576        C  0.57442060  0.78659790  0.06595043    -0.10070
H577        H  0.59594772  0.84896797  0.11693544     0.09610
H578        H  0.59767951  0.74879799  0.11813404     0.07140
H579        H  0.56408327  0.78090339  0.04516426     0.06990
C580        C  0.75391279  0.90604456  0.58697911     0.04030
C581        C  0.75890346  0.87983067  0.60088545    -0.12120
C582        C  0.75310923  0.84807921  0.58742606     0.01530
C583        C  0.74133693  0.84233331  0.56004458    -0.10650
C584        C  0.73611073  0.86819020  0.54609601     0.04020
C585        C  0.74248708  0.89996071  0.55952873    -0.10070
H586        H  0.76770741  0.88434530  0.62207643     0.09610
H587        H  0.73762728  0.81844655  0.54918536     0.07140
H588        H  0.73947254  0.92037845  0.54833778     0.06990
Zr589      Zr  0.27374278  0.13654734  0.63575129     2.17510
O590        O  0.20736914  0.10061085  0.63574934    -0.50430
O591        O  0.27909205  0.13918024  0.58601371    -0.73640
O592        O  0.24592968  0.17372631  0.62746787    -0.80420
O593        O  0.27886182  0.04964233  0.64545836    -0.82170
O594        O  0.28344686  0.23084490  0.64369529    -0.77790
O595        O  0.24446711  0.07171193  0.62728845    -0.89430
O596        O  0.33908151  0.17161832  0.57484587    -0.75390
O597        O  0.32424573  0.19520094  0.62608162    -0.84880
O598        O  0.32337705  0.12719621  0.62605335    -0.84570
O599        O  0.28179374  0.17162701  0.67641853    -0.71330
O600        O  0.28123968  0.10853300  0.67607902    -0.83460
Zr601      Zr  0.39225596  0.19450604  0.69743461     2.26420
Zr602      Zr  0.33380781  0.23013276  0.66686697     2.06270
Zr603      Zr  0.33203615  0.10051485  0.66648360     2.10050
Zr604      Zr  0.37393196  0.18581838  0.61694006     1.78760
O605        O  0.30696467  0.04894981  0.69789990    -0.92270
O606        O  0.39914345  0.24353368  0.59246480    -0.40080
O607        O  0.38371721  0.15904378  0.65697862    -0.76710
O608        O  0.38475376  0.22237979  0.65698953    -0.95390
O609        O  0.34242503  0.20345161  0.70719397    -0.88700
O610        O  0.34162600  0.13579574  0.70687353    -0.91540
C611        C  0.30521362  0.15369146  0.56853168     1.02210
C612        C  0.25089391  0.04576087  0.63229762     1.15140
C613        C  0.25433315  0.20690502  0.63161831     1.05920
O614        O  0.35979487  0.28350316  0.63719470    -0.93700
O615        O  0.38605128  0.28046649  0.68925646    -0.89440
O616        O  0.41973156  0.25858318  0.70889840    -0.82580
C617        C  0.41346184  0.28451574  0.70332929     1.12560
O618        O  0.22558919  0.11382303  0.72024195    -0.95670
Zr619      Zr  0.29176833  0.14479201  0.71626292     1.88940
O620        O  0.38690015  0.19236458  0.74716530    -0.72320
O621        O  0.30907395  0.25551813  0.69946585    -0.51580
O622        O  0.27416767  0.18286264  0.74179771    -0.96260
O623        O  0.26689106  0.08758431  0.74151439    -0.53480
O624        O  0.32678579  0.16002973  0.75827440    -0.72830
C625        C  0.36065051  0.17807149  0.76458148     0.99510
O626        O  0.45854749  0.22762185  0.69285310    -0.61660
O627        O  0.35718193  0.07431373  0.63496643    -0.56460
O628        O  0.41978339  0.15740400  0.70684243    -0.93140
O629        O  0.38339083  0.10088110  0.68900348    -0.91570
O630        O  0.39232306  0.14873084  0.59098196    -0.91920
O631        O  0.43975075  0.21560714  0.61142587    -0.90710
C632        C  0.41191238  0.12453473  0.70189571     1.18350
H633        H  0.31815493  0.11131125  0.61047629     0.34300
H634        H  0.40627615  0.24577157  0.65388991     0.45150
H635        H  0.34652435  0.12458863  0.72228706     0.38670
H636        H  0.26056890  0.17389912  0.67965904     0.35150
H637        H  0.40578552  0.23856418  0.57417657     0.26940
H638        H  0.31170962  0.27753904  0.69028851     0.32880
H639        H  0.27081981  0.17386247  0.76091058     0.38790
H640        H  0.39741395  0.15927869  0.57229373     0.33250
H641        H  0.34856336  0.04945269  0.64210096     0.32120
H642        H  0.31469006  0.03226835  0.69028867     0.33810
H643        H  0.26410656  0.09379077  0.76057604     0.32770
H644        H  0.44963281  0.22503540  0.62988240     0.36770
H645        H  0.46401801  0.21291359  0.68006543     0.29500
H646        H  0.19946399  0.10637807  0.61827634     0.33740
H647        H  0.22038809  0.11348814  0.74005346     0.36590
H648        H  0.34358846  0.07047659  0.61764066     0.29200
H649        H  0.46455202  0.24967187  0.68201020     0.42070
H650        H  0.34921539  0.27406731  0.61889308     0.32130
H651        H  0.37798592  0.24680246  0.58892529     0.39740
H652        H  0.28697913  0.08214411  0.74248129     0.31590
H653        H  0.28251019  0.23820103  0.69966437     0.31660
H654        H  0.19936164  0.11139193  0.65021801     0.31920
C655        C  0.42202801  0.18237890  0.91917059     0.04030
C656        C  0.42866329  0.21454310  0.93244348    -0.12120
C657        C  0.41952023  0.23863633  0.91965211     0.01530
C658        C  0.40282511  0.22965905  0.89375986    -0.10650
C659        C  0.39764619  0.19862721  0.87975324     0.04020
C660        C  0.40648914  0.17469223  0.89286508    -0.10070
H661        H  0.44255429  0.22162739  0.95202342     0.09610
H662        H  0.39511274  0.24770938  0.88393009     0.07140
H663        H  0.40258733  0.15066208  0.88213969     0.06990
C664        C  0.24874508  0.09619271  0.41225688     0.04030
C665        C  0.24109114  0.12110357  0.39927310    -0.12120
C666        C  0.24756898  0.15295001  0.41284488     0.01530
C667        C  0.26107710  0.15931840  0.43974662    -0.10650
C668        C  0.26820861  0.13425139  0.45315728     0.04020
C669        C  0.26273024  0.10310143  0.43898580    -0.10070
H670        H  0.22971735  0.11548011  0.37877848     0.09610
H671        H  0.26428944  0.18295153  0.45069702     0.07140
H672        H  0.26800930  0.08345972  0.44910445     0.06990
Zr673      Zr  0.53023062  0.47092765  0.96880287     2.17510
O674        O  0.56576033  0.44018245  0.96940912    -0.50430
O675        O  0.52734077  0.47403617  0.91918581    -0.73640
O676        O  0.49296427  0.40651271  0.95824210    -0.80420
O677        O  0.61568591  0.56414037  0.97776596    -0.82170
O678        O  0.43837859  0.38351802  0.97998859    -0.77790
O679        O  0.59510539  0.50770611  0.96023110    -0.89430
O680        O  0.49156667  0.49798219  0.90848943    -0.75390
O681        O  0.47060242  0.46047585  0.96020750    -0.84880
O682        O  0.53745663  0.52905320  0.95877903    -0.84570
O683        O  0.49659838  0.44333816  0.01000816    -0.71330
O684        O  0.55815122  0.50728415  0.00872697    -0.83460
Zr685      Zr  0.47028933  0.52862321  0.03108116     2.26420
Zr686      Zr  0.43703471  0.43442168  0.00149397     2.06270
Zr687      Zr  0.56411554  0.56522319  0.99877317     2.10050
Zr688      Zr  0.47783363  0.51867401  0.95063904     1.78760
O689        O  0.61535740  0.59345037  0.03034246    -0.92270
O690        O  0.41974579  0.48511109  0.92684990    -0.40080
O691        O  0.50456858  0.55616605  0.99017037    -0.76710
O692        O  0.44249362  0.49217959  0.99114894    -0.95390
O693        O  0.46352792  0.47076944  0.04135314    -0.88700
O694        O  0.52995840  0.53892600  0.03965540    -0.91540
C695        C  0.51102170  0.48384488  0.90193210     1.02210
C696        C  0.62061361  0.54042802  0.96506602     1.15140
C697        C  0.46127498  0.38026621  0.96481188     1.05920
O698        O  0.38441881  0.40591167  0.97118930    -0.93700
O699        O  0.38594698  0.43393229  0.02441861    -0.89440
O700        O  0.40558102  0.49097920  0.04090621    -0.82580
C701        C  0.38079468  0.45773998  0.03667266     1.12560
O702        O  0.55687057  0.44859723  0.05334899    -0.95670
Zr703      Zr  0.52312004  0.48098508  0.04946990     1.88940
O704        O  0.47230157  0.52487677  0.08074189    -0.72320
O705        O  0.41230783  0.38452376  0.03445029    -0.51580
O706        O  0.48682499  0.42447590  0.07478877    -0.96260
O707        O  0.58006373  0.51529809  0.07469492    -0.53480
O708        O  0.50653085  0.49921975  0.09160758    -0.72830
C709        C  0.48744695  0.51382063  0.09810664     0.99510
O710        O  0.43714249  0.56180517  0.02751510    -0.61660
O711        O  0.58968408  0.61619538  0.96673472    -0.56460
O712        O  0.50736055  0.59290685  0.04179095    -0.93140
O713        O  0.56192006  0.61593204  0.02006583    -0.91570
O714        O  0.51361230  0.57410523  0.92406756    -0.91920
O715        O  0.44653603  0.55323996  0.94558537    -0.90710
C716        C  0.53898291  0.61927731  0.03520024     1.18350
H717        H  0.55291775  0.53996670  0.94299014     0.34300
H718        H  0.41868873  0.48932160  0.98820283     0.45150
H719        H  0.54106951  0.55527157  0.05493568     0.38670
H720        H  0.49535952  0.42027425  0.01318839     0.35150
H721        H  0.42437987  0.49616739  0.90834194     0.26940
H722        H  0.39124036  0.36428533  0.02500101     0.32880
H723        H  0.49537946  0.43036572  0.09397716     0.38790
H724        H  0.50265896  0.56822968  0.90553082     0.33250
H725        H  0.61447577  0.63290432  0.97378518     0.32120
H726        H  0.63199247  0.61760766  0.02220779     0.33810
H727        H  0.57425672  0.50570048  0.09365054     0.32770
H728        H  0.43929488  0.55542660  0.96445170     0.36770
H729        H  0.45281120  0.58375104  0.01642206     0.29500
H730        H  0.56161544  0.42812670  0.95134409     0.33740
H731        H  0.55686133  0.44317945  0.07309515     0.36590
H732        H  0.59373671  0.60637635  0.94954589     0.29200
H733        H  0.41638459  0.54698573  0.01517372     0.42070
H734        H  0.39423408  0.40366574  0.95335569     0.32130
H735        H  0.41651267  0.46061184  0.92378504     0.39740
H736        H  0.58411208  0.54032206  0.07608717     0.31590
H737        H  0.43064231  0.37665680  0.03556569     0.31660
H738        H  0.55339615  0.42004768  0.98278791     0.31920
C739        C  0.57056663  0.48561223  0.74684975     0.04030
C740        C  0.56086042  0.49321692  0.77253586    -0.12120
C741        C  0.52994418  0.46691776  0.78655740     0.01530
C742        C  0.50616259  0.43413959  0.77339236    -0.10650
C743        C  0.51427135  0.42680375  0.74716556     0.04020
C744        C  0.54689550  0.45205651  0.73425826    -0.10070
H745        H  0.57816687  0.51921388  0.78230685     0.09610
H746        H  0.48224234  0.41348971  0.78403441     0.07140
H747        H  0.55404422  0.44505858  0.71480649     0.06990
C748        C  0.48541791  0.57089266  0.25311056     0.04030
C749        C  0.45220318  0.54660380  0.26598189    -0.12120
C750        C  0.42688816  0.51411907  0.25295051     0.01530
C751        C  0.43480067  0.50613823  0.22685218    -0.10650
C752        C  0.46719388  0.53039472  0.21343325     0.04020
C753        C  0.49295208  0.56189497  0.22709556    -0.10070
H754        H  0.44518579  0.55367831  0.28545972     0.09610
H755        H  0.41512721  0.48137018  0.21656604     0.07140
H756        H  0.51824151  0.58030950  0.21681609     0.06990
C757        C  0.44488374  0.51881502  0.16500632     0.24490
C758        C  0.47224510  0.52490903  0.18410448    -0.23610
C759        C  0.50474069  0.52741145  0.17473364     0.19400
C760        C  0.50975175  0.52384141  0.14679332     0.24440
C761        C  0.48239138  0.51788129  0.12766613    -0.23560
C762        C  0.44988498  0.51533419  0.13712385     0.19340
F763        F  0.42256360  0.50885060  0.11944065    -0.13520
F764        F  0.41355201  0.51722843  0.17324242    -0.15880
F765        F  0.54175940  0.52708568  0.13840925    -0.15880
F766        F  0.53153506  0.53300806  0.19266509    -0.13520
C767        C  0.54911578  0.48537182  0.86239552     0.24490
C768        C  0.51545973  0.47921241  0.87243902    -0.23610
C769        C  0.48649960  0.46945190  0.85396101     0.19400
C770        C  0.49113226  0.46574929  0.82596627     0.24440
C771        C  0.52488424  0.47207404  0.81594706    -0.23560
C772        C  0.55378352  0.48186222  0.83447673     0.19340
F773        F  0.58642753  0.48712237  0.82566759    -0.13520
F774        F  0.57784917  0.49557615  0.87954054    -0.15880
F775        F  0.46276655  0.45636526  0.80861723    -0.15880
F776        F  0.45345523  0.46271306  0.86308094    -0.13520
C777        C  0.42354127  0.27835923  0.95954950     0.24490
C778        C  0.43031727  0.27479178  0.93179051    -0.23610
C779        C  0.44773406  0.30634299  0.91533589     0.19400
C780        C  0.45752680  0.34042505  0.92616913     0.24440
C781        C  0.45044357  0.34392906  0.95373182    -0.23560
C782        C  0.43341933  0.31267578  0.97039939     0.19340
F783        F  0.42713370  0.31550106  0.99732057    -0.13520
F784        F  0.40683096  0.24863237  0.97605180    -0.15880
F785        F  0.47333691  0.37004837  0.90947968    -0.15880
F786        F  0.45605337  0.30441043  0.88875707    -0.13520
C787        C  0.35119957  0.15421138  0.81266608     0.24490
C788        C  0.36989228  0.18306714  0.79400926    -0.23610
C789        C  0.39689042  0.21711848  0.80379481     0.19400
C790        C  0.40529061  0.22223993  0.83169015     0.24440
C791        C  0.38686877  0.19335719  0.85042949    -0.23560
C792        C  0.35970132  0.15926630  0.84062479     0.19340
F793        F  0.34116236  0.13092758  0.85813323    -0.13520
F794        F  0.32529068  0.12085573  0.80372409    -0.15880
F795        F  0.43227918  0.25528554  0.84023042    -0.15880
F796        F  0.41469240  0.24573792  0.78638870    -0.13520
C797        C  0.47523171  0.33027266  0.72192227     0.24490
C798        C  0.43982148  0.32156900  0.71368455    -0.23610
C799        C  0.43002376  0.34875728  0.71554065     0.19400
C800        C  0.45460201  0.38322409  0.72593405     0.24440
C801        C  0.48950841  0.39141849  0.73431558    -0.23560
C802        C  0.49979270  0.36490627  0.73201434     0.19340
F803        F  0.53335260  0.37226696  0.74033424    -0.13520
F804        F  0.48636177  0.30541868  0.72020477    -0.15880
F805        F  0.44429029  0.40868847  0.72795930    -0.15880
F806        F  0.39636374  0.34188362  0.70798001    -0.13520
C807        C  0.26773384  0.11544116  0.52924171     0.24490
C808        C  0.29577048  0.14898556  0.53905590    -0.23610
C809        C  0.31521662  0.17760380  0.52035709     0.19400
C810        C  0.30655656  0.17279807  0.49241074     0.24440
C811        C  0.27847078  0.13918466  0.48260019    -0.23560
C812        C  0.25917137  0.11055747  0.50134063     0.19340
F813        F  0.23131409  0.07801308  0.49277162    -0.13520
F814        F  0.24912086  0.08699864  0.54659845    -0.15880
F815        F  0.32593517  0.20089390  0.47488242    -0.15880
F816        F  0.34212201  0.21051204  0.52922210    -0.13520
C817        C  0.57368405  0.68783051  0.03177060     0.24490
C818        C  0.54960062  0.65584218  0.04620233    -0.23610
C819        C  0.53539107  0.65901236  0.07146098     0.19400
C820        C  0.54520076  0.69318664  0.08213689     0.24440
C821        C  0.56945489  0.72509339  0.06790805    -0.23560
C822        C  0.58336324  0.72216889  0.04248984     0.19340
F823        F  0.60687594  0.75254356  0.02832128    -0.13520
F824        F  0.58738401  0.68591202  0.00708498    -0.15880
F825        F  0.53053707  0.69509062  0.10638162    -0.15880
F826        F  0.51251558  0.62899847  0.08626877    -0.13520
C827        C  0.54384710  0.64483801  0.30485122     0.24490
C828        C  0.55979710  0.67596245  0.28808239    -0.23610
C829        C  0.55131814  0.67240172  0.26010435     0.19400
C830        C  0.52685258  0.63856975  0.24896992     0.24440
C831        C  0.51093465  0.60701166  0.26549212    -0.23560
C832        C  0.51963804  0.61058851  0.29366830     0.19340
F833        F  0.50524057  0.58095644  0.31032904    -0.13520
F834        F  0.55114092  0.64772877  0.33211951    -0.15880
F835        F  0.51817373  0.63704214  0.22202929    -0.15880
F836        F  0.56755136  0.70176527  0.24329965    -0.13520
C837        C  0.58727639  0.77857606  0.16903636     0.24490
C838        C  0.60885668  0.80563964  0.14988226    -0.23610
C839        C  0.63901469  0.83814326  0.15913774     0.19400
C840        C  0.64795776  0.84308240  0.18703298     0.24440
C841        C  0.62647202  0.81583238  0.20622918    -0.23560
C842        C  0.59572739  0.78380421  0.19691579     0.19340
F843        F  0.57404578  0.75714977  0.21473227    -0.13520
F844        F  0.55745681  0.74724975  0.16080083    -0.15880
F845        F  0.67719791  0.87483772  0.19531522    -0.15880
F846        F  0.66016785  0.86486413  0.14109315    -0.13520
C847        C  0.68021635  0.83519170  0.48130628     0.24490
C848        C  0.70700088  0.85287937  0.46075373    -0.23610
C849        C  0.74354635  0.87571929  0.46899217     0.19400
C850        C  0.75282847  0.88073811  0.49678901     0.24440
C851        C  0.72604807  0.86299194  0.51689557    -0.23560
C852        C  0.68978577  0.84018605  0.50905267     0.19340
F853        F  0.66356368  0.82290802  0.52836275    -0.13520
F854        F  0.64468822  0.81274142  0.47474945    -0.15880
F855        F  0.78813264  0.90279578  0.50415315    -0.15880
F856        F  0.77047163  0.89355645  0.45028954    -0.13520
C857        C  0.21605996  0.26127953  0.59839947     0.24490
C858        C  0.17828058  0.23728849  0.60095114    -0.23610
C859        C  0.16589446  0.20404327  0.61485904     0.19400
C860        C  0.19071312  0.19452004  0.62520567     0.24440
C861        C  0.22838898  0.21803425  0.62193777    -0.23560
C862        C  0.24087764  0.25176477  0.60885725     0.19340
F863        F  0.27709456  0.27491324  0.60523334    -0.13520
F864        F  0.22898064  0.29394000  0.58566090    -0.15880
F865        F  0.17787219  0.16229185  0.63857685    -0.15880
F866        F  0.12971083  0.18001975  0.61750224    -0.13520
C867        C  0.32864367  0.46886313  0.04153460     0.24490
C868        C  0.34361573  0.44638514  0.04624580    -0.23610
C869        C  0.32295176  0.41337319  0.06037672     0.19400
C870        C  0.28844504  0.40372443  0.07062203     0.24440
C871        C  0.27396286  0.42693740  0.06686938    -0.23560
C872        C  0.29421400  0.45929977  0.05172760     0.19340
F873        F  0.28148325  0.48261245  0.04776800    -0.13520
F874        F  0.34733397  0.50013100  0.02689394    -0.15880
F875        F  0.26927788  0.37174976  0.08436551    -0.15880
F876        F  0.33677050  0.39113962  0.06520664    -0.13520
C877        C  0.25390093  0.24012691  0.38683767     0.24490
C878        C  0.21761564  0.22798214  0.37901459    -0.23610
C879        C  0.19181721  0.19054104  0.38109968     0.19400
C880        C  0.20185928  0.16605306  0.39134657     0.24440
C881        C  0.23778647  0.17843498  0.39989026    -0.23560
C882        C  0.26378962  0.21558768  0.39733789     0.19340
F883        F  0.29882539  0.22810882  0.40509089    -0.13520
F884        F  0.27962343  0.27593272  0.38519981    -0.15880
F885        F  0.17611015  0.13034492  0.39382673    -0.15880
F886        F  0.15680561  0.17743827  0.37305875    -0.13520
C887        C  0.10761191  0.25493510  0.49857364     0.24490
C888        C  0.13619319  0.27383430  0.51738676    -0.23610
C889        C  0.16985918  0.30210675  0.50776942     0.19400
C890        C  0.17482849  0.31132802  0.47995624     0.24440
C891        C  0.14631071  0.29233202  0.46115899    -0.23560
C892        C  0.11266392  0.26403984  0.47072019     0.19340
F893        F  0.08434851  0.24574112  0.45318591    -0.13520
F894        F  0.07497840  0.22706473  0.50703551    -0.15880
F895        F  0.20782549  0.33839578  0.47130814    -0.15880
F896        F  0.19786250  0.32121211  0.52539361    -0.13520
C897        C  0.18772158  0.35187834  0.18766230     0.24490
C898        C  0.18753991  0.37599964  0.20748683    -0.23610
C899        C  0.19261581  0.40994565  0.19871922     0.19400
C900        C  0.19746034  0.41929750  0.17090377     0.24440
C901        C  0.19773440  0.39518329  0.15139174    -0.23560
C902        C  0.19295752  0.36152518  0.15995048     0.19340
F903        F  0.19279630  0.33770135  0.14132306    -0.13520
F904        F  0.18339768  0.31907494  0.19502032    -0.15880
F905        F  0.20241737  0.45217753  0.16301008    -0.15880
F906        F  0.19226453  0.43392294  0.21692980    -0.13520
C907        C  0.32480591  0.45504080  0.26091058     0.24490
C908        C  0.32168675  0.43998784  0.28715292    -0.23610
C909        C  0.35347840  0.45030456  0.30253877     0.19400
C910        C  0.38776569  0.47511112  0.29175841     0.24440
C911        C  0.39078683  0.48958643  0.26532012    -0.23560
C912        C  0.35895783  0.47952302  0.25012031     0.19340
F913        F  0.36090827  0.49370087  0.22478909    -0.13520
F914        F  0.29477350  0.44537245  0.24534298    -0.15880
F915        F  0.41804171  0.48433609  0.30687003    -0.15880
F916        F  0.35131903  0.43693751  0.32819784    -0.13520
C917        C  0.78530499  0.73584681  0.39640261     0.24490
C918        C  0.82256594  0.76178055  0.39860541    -0.23610
C919        C  0.83502315  0.79746968  0.38929494     0.19400
C920        C  0.81054157  0.80737053  0.37881258     0.24440
C921        C  0.77305678  0.78171929  0.37728139    -0.23560
C922        C  0.76079012  0.74565200  0.38574456     0.19340
F923        F  0.72484944  0.72017012  0.38477205    -0.13520
F924        F  0.77258300  0.70101700  0.40483217    -0.15880
F925        F  0.82362460  0.84215827  0.37016328    -0.15880
F926        F  0.87075034  0.82326311  0.39144574    -0.13520
C927        C  0.68824177  0.58596811  0.96125779     0.24490
C928        C  0.65804412  0.55134114  0.95510520    -0.23610
C929        C  0.66404369  0.52722217  0.93889538     0.19400
C930        C  0.69872048  0.53765978  0.92881883     0.24440
C931        C  0.72826235  0.57220304  0.93460766    -0.23560
C932        C  0.72298230  0.59622210  0.95102781     0.19340
F933        F  0.75138821  0.62982319  0.95679010    -0.13520
F934        F  0.68435382  0.61014848  0.97700531    -0.15880
F935        F  0.70344533  0.51410692  0.91292205    -0.15880
F936        F  0.63637461  0.49357449  0.93223437    -0.13520
C937        C  0.63783525  0.52902875  0.75141561     0.24490
C938        C  0.60667300  0.51158152  0.73455980    -0.23610
C939        C  0.61072673  0.51912521  0.70616217     0.19400
C940        C  0.64506779  0.54337256  0.69507508     0.24440
C941        C  0.67573844  0.56061549  0.71216856    -0.23560
C942        C  0.67167501  0.55362300  0.74035220     0.19340
F943        F  0.70057432  0.57137788  0.75737330    -0.13520
F944        F  0.63601655  0.52170110  0.77864318    -0.15880
F945        F  0.64851825  0.54944411  0.66762325    -0.15880
F946        F  0.58150003  0.50355695  0.68915926    -0.13520
C947        C  0.78280352  0.59884160  0.80454115     0.24490
C948        C  0.81582681  0.62772491  0.79460178    -0.23610
C949        C  0.84429435  0.64779714  0.81325557     0.19400
C950        C  0.83965321  0.63926851  0.84124661     0.24440
C951        C  0.80628637  0.61086525  0.85118547    -0.23560
C952        C  0.77793394  0.59073410  0.83252141     0.19340
F953        F  0.74569654  0.56250174  0.84126928    -0.13520
F954        F  0.75489938  0.57865867  0.78721867    -0.15880
F955        F  0.86764025  0.65909965  0.85870487    -0.15880
F956        F  0.87695280  0.67513844  0.80431427    -0.13520
C957        C  0.80611009  0.81040326  0.62380043     0.24490
C958        C  0.78184500  0.77265919  0.62234166    -0.23610
C959        C  0.74709297  0.75992193  0.61090620     0.19400
C960        C  0.73730183  0.78445519  0.60025660     0.24440
C961        C  0.76196666  0.82218979  0.60104554    -0.23560
C962        C  0.79624611  0.83492503  0.61334402     0.19340
F963        F  0.82087062  0.87111508  0.61424866    -0.13520
F964        F  0.83940824  0.82364549  0.63549534    -0.15880
F965        F  0.70373679  0.77131577  0.58902574    -0.15880
F966        F  0.72310117  0.72364233  0.60904339    -0.13520
C967        C  0.84566764  0.73247345  0.52977503     0.24490
C968        C  0.85160593  0.70479821  0.53973656    -0.23610
C969        C  0.86094815  0.68544563  0.52118489     0.19400
C970        C  0.86461577  0.69384741  0.49322190     0.24440
C971        C  0.85895152  0.72174464  0.48323508    -0.23560
C972        C  0.84927274  0.74085816  0.50181339     0.19340
F973        F  0.84433856  0.76846325  0.49305037    -0.13520
F974        F  0.83569014  0.75099293  0.54705517    -0.15880
F975        F  0.87346578  0.67449609  0.47587063    -0.15880
F976        F  0.86744514  0.65895327  0.53022851    -0.13520
C977        C  0.19537437  0.94287245  0.62333141     0.24490
C978        C  0.17571188  0.94003263  0.59940257    -0.23610
C979        C  0.17989661  0.97175993  0.58702450     0.19400
C980        C  0.20373786  0.00587696  0.59804282     0.24440
C981        C  0.22445159  0.00914231  0.62156611    -0.23560
C982        C  0.21981289  0.97718365  0.63423575     0.19340
F983        F  0.23852640  0.97905971  0.65733574    -0.13520
F984        F  0.19155904  0.91249045  0.63572768    -0.15880
F985        F  0.20705996  0.03576092  0.58517857    -0.15880
F986        F  0.16060068  0.96965993  0.56420101    -0.13520
C987        C  0.04654747  0.78251513  0.60044880     0.24490
C988        C  0.05953724  0.82020858  0.60045609    -0.23610
C989        C  0.03740960  0.83311421  0.61128504     0.19400
C990        C  0.00262533  0.80877869  0.62124855     0.24440
C991        C  0.98928386  0.77101771  0.62075158    -0.23560
C992        C  0.01181605  0.75814385  0.61064001     0.19340
F993        F  0.99974056  0.72187099  0.60971065    -0.13520
F994        F  0.06746837  0.76928140  0.59043065    -0.15880
F995        F  0.98211983  0.82227273  0.63160531    -0.15880
F996        F  0.04886155  0.86927944  0.61122708    -0.13520
C997        C  0.25534213  0.01853169  0.38008884     0.24490
C998        C  0.21824879  0.99136051  0.37806536    -0.23610
C999        C  0.19158618  0.00009730  0.38622882     0.19400
C1000       C  0.20174031  0.03457933  0.39655715     0.24440
C1001       C  0.23859444  0.06103916  0.39917462    -0.23560
C1002       C  0.26533607  0.05293980  0.39074916     0.19340
F1003       F  0.30116695  0.07837651  0.39296979    -0.13520
F1004       F  0.28209158  0.01167060  0.37247521    -0.15880
F1005       F  0.17548663  0.04184265  0.40483895    -0.15880
F1006       F  0.15551011  0.97536246  0.38430060    -0.13520
C1007       C  0.97992230  0.76496563  0.36444459     0.24490
C1008       C  0.01147100  0.78397897  0.38054004    -0.23610
C1009       C  0.00826778  0.79347101  0.40753222     0.19400
C1010       C  0.97422766  0.78414282  0.41831157     0.24440
C1011       C  0.94242876  0.76469518  0.40243508    -0.23560
C1012       C  0.94567989  0.75541871  0.37527745     0.19340
F1013       F  0.91570404  0.73657909  0.35934207    -0.13520
F1014       F  0.98234065  0.75642683  0.33801374    -0.15880
F1015       F  0.97256233  0.79490122  0.44420297    -0.15880
F1016       F  0.03815526  0.81131036  0.42373966    -0.13520
C1017       C  0.14401965  0.82684285  0.47988496     0.24490
C1018       C  0.14598376  0.85232978  0.46033676    -0.23610
C1019       C  0.14316435  0.88235103  0.46938025     0.19400
C1020       C  0.13881265  0.88688282  0.49723104     0.24440
C1021       C  0.13686351  0.86141394  0.51656950    -0.23560
C1022       C  0.13930727  0.83129608  0.50769600     0.19340
F1023       F  0.13772829  0.80648142  0.52607450    -0.13520
F1024       F  0.14605662  0.79720962  0.47211979    -0.15880
F1025       F  0.13591067  0.91592953  0.50531577    -0.15880
F1026       F  0.14534550  0.90781246  0.45138723    -0.13520
C1027       C  0.15769076  0.80616084  0.18682614     0.24490
C1028       C  0.18525327  0.81291296  0.20593641    -0.23610
C1029       C  0.21786783  0.81559078  0.19658780     0.19400
C1030       C  0.22292672  0.81180012  0.16874146     0.24440
C1031       C  0.19538461  0.80502333  0.14966456    -0.23560
C1032       C  0.16265202  0.80207140  0.15897582     0.19340
F1033       F  0.13563637  0.79570758  0.14102330    -0.13520
F1034       F  0.12561016  0.80278506  0.19516537    -0.15880
F1035       F  0.25452083  0.81397036  0.16049647    -0.15880
F1036       F  0.24528535  0.82274393  0.21432247    -0.13520
C1037       C  0.54277061  0.93005605  0.28150407     0.24490
C1038       C  0.51106819  0.90471937  0.26786696    -0.23610
C1039       C  0.50355586  0.86884085  0.26476938     0.19400
C1040       C  0.52773936  0.85832013  0.27474271     0.24440
C1041       C  0.56021733  0.88368354  0.28816638    -0.23560
C1042       C  0.56713437  0.91971580  0.29168962     0.19340
F1043       F  0.59762370  0.94525156  0.30464162    -0.13520
F1044       F  0.55033525  0.96494911  0.28462633    -0.15880
F1045       F  0.51923212  0.82326589  0.27086007    -0.15880
F1046       F  0.47296298  0.84407617  0.25146372    -0.13520
C1047       C  0.32761310  0.86415000  0.26614510     0.24490
C1048       C  0.32389082  0.88254779  0.28886462    -0.23610
C1049       C  0.35562499  0.91128813  0.30077782     0.19400
C1050       C  0.39006487  0.92154247  0.28995170     0.24440
C1051       C  0.39328794  0.90368392  0.26686004    -0.23560
C1052       C  0.36188526  0.87480926  0.25520843     0.19340
F1053       F  0.36448450  0.85670767  0.23318576    -0.13520
F1054       F  0.29804305  0.83625012  0.25396795    -0.15880
F1055       F  0.42020398  0.94940526  0.30161909    -0.15880
F1056       F  0.35344932  0.92923642  0.32305421    -0.13520
C1057       C  0.42497917  0.07993418  0.72548211     0.24490
C1058       C  0.43766344  0.11331123  0.71182975    -0.23610
C1059       C  0.47533506  0.13646701  0.70835787     0.19400
C1060       C  0.50000599  0.12694692  0.71901476     0.24440
C1061       C  0.48746878  0.09398383  0.73340832    -0.23560
C1062       C  0.44963628  0.07035561  0.73620860     0.19340
F1063       F  0.43648636  0.03796272  0.74939307    -0.13520
F1064       F  0.38873165  0.05723056  0.72938043    -0.15880
F1065       F  0.53621067  0.15075355  0.71616238    -0.15880
F1066       F  0.48831936  0.16834638  0.69448077    -0.13520
C1067       C  0.31973576  0.90697803  0.05386715     0.24490
C1068       C  0.34265658  0.89446022  0.04390850    -0.23610
C1069       C  0.33002285  0.85679903  0.04419300     0.19400
C1070       C  0.29568445  0.83231654  0.05486743     0.24440
C1071       C  0.27330784  0.84495278  0.06563139    -0.23560
C1072       C  0.28547085  0.88245846  0.06474457     0.19340
F1073       F  0.26418780  0.89538368  0.07455560    -0.13520
F1074       F  0.33103490  0.94310461  0.05410841    -0.15880
F1075       F  0.28492019  0.79632264  0.05568141    -0.15880
F1076       F  0.35089338  0.84356768  0.03407463    -0.13520
C1077       C  0.52646584  0.85593936  0.04340115     0.24490
C1078       C  0.55055290  0.89371672  0.04508858    -0.23610
C1079       C  0.58542650  0.90651831  0.05630629     0.19400
C1080       C  0.59559893  0.88206431  0.06640085     0.24440
C1081       C  0.57115364  0.84429150  0.06544827    -0.23560
C1082       C  0.53667528  0.83145160  0.05343939     0.19340
F1083       F  0.51220809  0.79522935  0.05244358    -0.13520
F1084       F  0.49305693  0.84265642  0.03186605    -0.15880
F1085       F  0.62933578  0.89535324  0.07736203    -0.15880
F1086       F  0.60924746  0.94280604  0.05847337    -0.13520
C1087       C  0.48219039  0.93057442  0.13736873     0.24490
C1088       C  0.48111470  0.96138182  0.12794000    -0.23610
C1089       C  0.47575752  0.98314698  0.14703836     0.19400
C1090       C  0.47144913  0.97420715  0.17490875     0.24440
C1091       C  0.47282160  0.94362247  0.18428417    -0.23560
C1092       C  0.47825358  0.92189597  0.16529426     0.19340
F1093       F  0.47896985  0.89175817  0.17373928    -0.13520
F1094       F  0.48781332  0.90923842  0.11964731    -0.15880
F1095       F  0.46638393  0.99571738  0.19283342    -0.15880
F1096       F  0.47388945  0.01270021  0.13868174    -0.13520
C1097       C  0.42287129  0.14413578  0.95835455     0.24490
C1098       C  0.43362226  0.15788019  0.93162406    -0.23610
C1099       C  0.45473881  0.14714747  0.91630603     0.19400
C1100       C  0.46416521  0.12255479  0.92716037     0.24440
C1101       C  0.45280759  0.10816002  0.95364686    -0.23560
C1102       C  0.43222845  0.11931605  0.96923115     0.19340
F1103       F  0.42175895  0.10672572  0.99515777    -0.13520
F1104       F  0.40259238  0.15406144  0.97369366    -0.15880
F1105       F  0.48370506  0.11210890  0.91140388    -0.15880
F1106       F  0.46662848  0.16078950  0.89079596    -0.13520
C1107       C  0.55732207  0.08019614  0.83608253     0.24490
C1108       C  0.53024271  0.05830118  0.81706741    -0.23610
C1109       C  0.49853259  0.02729148  0.82633264     0.19400
C1110       C  0.49397043  0.01815915  0.85415729     0.24440
C1111       C  0.52094569  0.04014562  0.87334236    -0.23560
C1112       C  0.55266807  0.07133064  0.86398010     0.19340
F1113       F  0.57955250  0.09290392  0.88172785    -0.13520
F1114       F  0.58800487  0.11063598  0.82768550    -0.15880
F1115       F  0.46273855  0.98817495  0.86235607    -0.15880
F1116       F  0.47213103  0.00554584  0.80832117    -0.13520
C1117       C  0.08051511  0.42656700  0.27695721     0.24490
C1118       C  0.11430090  0.43941412  0.29003442    -0.23610
C1119       C  0.13771726  0.47714939  0.29282499     0.19400
C1120       C  0.12807049  0.50165727  0.28200944     0.24440
C1121       C  0.09480584  0.48890607  0.26806818    -0.23560
C1122       C  0.07088051  0.45108008  0.26602074     0.19340
F1123       F  0.03819744  0.43781575  0.25329068    -0.13520
F1124       F  0.05745870  0.39027086  0.27374613    -0.15880
F1125       F  0.15203800  0.53790069  0.28419501    -0.15880
F1126       F  0.17001206  0.49036221  0.30611940    -0.13520
C1127       C  0.12918186  0.62893794  0.27954328     0.24490
C1128       C  0.09480472  0.60708736  0.26751690    -0.23610
C1129       C  0.06990043  0.61977845  0.26686437     0.19400
C1130       C  0.07955622  0.65411828  0.27740096     0.24440
C1131       C  0.11447683  0.67655646  0.28848741    -0.23560
C1132       C  0.13896241  0.66335721  0.28983724     0.19340
F1133       F  0.17241471  0.68372453  0.30125652    -0.13520
F1134       F  0.15394483  0.61760053  0.28032809    -0.15880
F1135       F  0.05524164  0.66596609  0.27577338    -0.15880
F1136       F  0.03625476  0.59895883  0.25585203    -0.13520
C1137       C  0.90697627  0.52047675  0.70755414     0.24490
C1138       C  0.90316620  0.51232062  0.73584647    -0.23610
C1139       C  0.88912079  0.52927994  0.75290576     0.19400
C1140       C  0.87983748  0.55398569  0.74212147     0.24440
C1141       C  0.88349399  0.56179302  0.71403508    -0.23560
C1142       C  0.89704012  0.54488896  0.69677030     0.19340
F1143       F  0.89975735  0.55132571  0.66935926    -0.13520
F1144       F  0.92080859  0.50536652  0.69032070    -0.15880
F1145       F  0.86762258  0.57073542  0.75926532    -0.15880
F1146       F  0.88325180  0.52129994  0.78003013    -0.13520
C1147       C  0.11862689  0.40515182  0.06859990     0.24490
C1148       C  0.15645822  0.42880930  0.06620860    -0.23610
C1149       C  0.16933088  0.46195079  0.05205431     0.19400
C1150       C  0.14490222  0.47185490  0.04146824     0.24440
C1151       C  0.10716439  0.44873169  0.04464201    -0.23560
C1152       C  0.09420180  0.41497577  0.05782736     0.19340
F1153       F  0.05788859  0.39213226  0.06128017    -0.13520
F1154       F  0.10529884  0.37258577  0.08156114    -0.15880
F1155       F  0.15817169  0.50404218  0.02798208    -0.15880
F1156       F  0.20562215  0.48552932  0.04945798    -0.13520
C1157       C  0.07222683  0.51911719  0.13626582     0.24490
C1158       C  0.04224377  0.52162650  0.12674924    -0.23610
C1159       C  0.02165959  0.52892582  0.14566522     0.19400
C1160       C  0.03083249  0.53355482  0.17348463     0.24440
C1161       C  0.06059518  0.53072591  0.18300703    -0.23560
C1162       C  0.08124695  0.52353140  0.16412075     0.19340
F1163       F  0.11063550  0.52142902  0.17256467    -0.13520
F1164       F  0.09234761  0.51152650  0.11870762    -0.15880
F1165       F  0.01019043  0.54018079  0.19122728    -0.15880
F1166       F  0.99300550  0.53228383  0.13716979    -0.13520
C1167       C  0.09367893  0.67985065  0.05447829     0.24490
C1168       C  0.10633101  0.65654634  0.04569697    -0.23610
C1169       C  0.14392874  0.66893810  0.04692826     0.19400
C1170       C  0.16822018  0.70354645  0.05712605     0.24440
C1171       C  0.15544598  0.72637760  0.06654828    -0.23560
C1172       C  0.11801704  0.71435732  0.06499384     0.19340
F1173       F  0.10504090  0.73606506  0.07372735    -0.13520
F1174       F  0.05761037  0.66880063  0.05377039    -0.15880
F1175       F  0.20416775  0.71425264  0.05871470    -0.15880
F1176       F  0.15734882  0.64768602  0.03805578    -0.13520
C1177       C  0.84269972  0.53780443  0.92512446     0.24490
C1178       C  0.84464434  0.57014961  0.93386096    -0.23610
C1179       C  0.87100325  0.59211500  0.95315730     0.19400
C1180       C  0.89573233  0.58218014  0.96326643     0.24440
C1181       C  0.89434960  0.54985236  0.95424924    -0.23560
C1182       C  0.86712283  0.52762742  0.93518934     0.19340
F1183       F  0.86436947  0.49629305  0.92569309    -0.13520
F1184       F  0.81713927  0.51612450  0.90655986    -0.15880
F1185       F  0.92087580  0.60425646  0.98190715    -0.15880
F1186       F  0.87327351  0.62360058  0.96174368    -0.13520
C1187       C  0.92260587  0.47526358  0.83544759     0.24490
C1188       C  0.94521017  0.47147643  0.81629674    -0.23610
C1189       C  0.97644753  0.47126106  0.82540627     0.19400
C1190       C  0.98529495  0.47536782  0.85329897     0.24440
C1191       C  0.96267729  0.47924058  0.87258240    -0.23560
C1192       C  0.93112544  0.47894058  0.86332490     0.19340
F1193       F  0.90890044  0.48307289  0.88114766    -0.13520
F1194       F  0.89182580  0.47479552  0.82713369    -0.15880
F1195       F  0.01566083  0.47491256  0.86145984    -0.15880
F1196       F  0.99863738  0.46761694  0.80723446    -0.13520
C1197       C  0.77860982  0.02002744  0.36641507     0.24490
C1198       C  0.77134756  0.98818701  0.38072220    -0.23610
C1199       C  0.78930315  0.99151977  0.40573614     0.19400
C1200       C  0.81370456  0.02578441  0.41628897     0.24440
C1201       C  0.82080836  0.05751322  0.40210671    -0.23560
C1202       C  0.80333404  0.05442390  0.37697409     0.19340
F1203       F  0.80974784  0.08470470  0.36290732    -0.13520
F1204       F  0.76241160  0.01790310  0.34194576    -0.15880
F1205       F  0.83090090  0.02798235  0.44029593    -0.15880
F1206       F  0.78276914  0.96158319  0.42035319    -0.13520
C1207       C  0.94455601  0.20651000  0.38523928     0.24490
C1208       C  0.93869293  0.17499322  0.39891825    -0.23610
C1209       C  0.96724373  0.16767451  0.40147320     0.19400
C1210       C  0.00167675  0.19192805  0.39096248     0.24440
C1211       C  0.00829868  0.22427965  0.37756265    -0.23560
C1212       C  0.97896333  0.23093230  0.37452594     0.19340
F1213       F  0.98348201  0.26133610  0.36169215    -0.13520
F1214       F  0.91705398  0.21390889  0.38267609    -0.15880
F1215       F  0.02849920  0.18371227  0.39441396    -0.15880
F1216       F  0.96192752  0.13731446  0.41487134    -0.13520
C1217       C  0.70341894  0.16713346  0.94125295     0.24490
C1218       C  0.72772245  0.15514750  0.93426841    -0.23610
C1219       C  0.71746262  0.11848445  0.93835613     0.19400
C1220       C  0.68301963  0.09393795  0.94897145     0.24440
C1221       C  0.65805105  0.10564278  0.95518377    -0.23560
C1222       C  0.66889518  0.14267524  0.95147353     0.19340
F1223       F  0.64615979  0.15542675  0.95776885    -0.13520
F1224       F  0.71265955  0.20240161  0.93716210    -0.15880
F1225       F  0.67372400  0.05853463  0.95223372    -0.15880
F1226       F  0.74075069  0.10646254  0.93186971    -0.13520
C1227       C  0.88287982  0.28836944  0.93071021     0.24490
C1228       C  0.84505021  0.27392867  0.93351680    -0.23610
C1229       C  0.83237062  0.29390991  0.94824980     0.19400
C1230       C  0.85694524  0.32796021  0.95924571     0.24440
C1231       C  0.89463668  0.34268864  0.95580621    -0.23560
C1232       C  0.90742077  0.32241242  0.94176505     0.19340
F1233       F  0.94367743  0.33621655  0.93777032    -0.13520
F1234       F  0.89615283  0.26953509  0.91720798    -0.15880
F1235       F  0.84387941  0.34653445  0.97337043    -0.15880
F1236       F  0.79613180  0.28120133  0.95112713    -0.13520
C1237       C  0.85650096  0.33557935  0.71312051     0.24490
C1238       C  0.88207198  0.32370994  0.71151817    -0.23610
C1239       C  0.91800433  0.34723123  0.72035190     0.19400
C1240       C  0.92784135  0.38140171  0.73124243     0.24440
C1241       C  0.90207413  0.39288442  0.73337241    -0.23560
C1242       C  0.86643428  0.36984761  0.72388121     0.19340
F1243       F  0.84077920  0.37989895  0.72598954    -0.13520
F1244       F  0.82182473  0.31408518  0.70417458    -0.15880
F1245       F  0.96262244  0.40329864  0.73986047    -0.15880
F1246       F  0.94335847  0.33667136  0.71942399    -0.13520
C1247       C  0.65001753  0.07801924  0.71677127     0.24490
C1248       C  0.67527535  0.11491025  0.71117634    -0.23610
C1249       C  0.66471719  0.14115882  0.71561230     0.19400
C1250       C  0.63021492  0.13091426  0.72594770     0.24440
C1251       C  0.60566931  0.09438896  0.73233855    -0.23560
C1252       C  0.61561896  0.06794721  0.72750115     0.19340
F1253       F  0.59205989  0.03240716  0.73336851    -0.13520
F1254       F  0.65896646  0.05181019  0.71278641    -0.15880
F1255       F  0.62120472  0.15694228  0.73069469    -0.15880
F1256       F  0.68770653  0.17687244  0.70992985    -0.13520
C1257       C  0.80568550  0.15937346  0.81245512     0.24490
C1258       C  0.81045096  0.18612006  0.79311743    -0.23610
C1259       C  0.81094071  0.21781081  0.80226571     0.19400
C1260       C  0.80715875  0.22279447  0.83014678     0.24440
C1261       C  0.80260953  0.19613744  0.84940247    -0.23560
C1262       C  0.80167388  0.16430148  0.84028934     0.19340
F1263       F  0.79751276  0.13819918  0.85844697    -0.13520
F1264       F  0.80431379  0.12809782  0.80440755    -0.15880
F1265       F  0.80731653  0.25345226  0.83829216    -0.15880
F1266       F  0.81598438  0.24444618  0.78433014    -0.13520
C1267       C  0.00370304  0.19324625  0.62397365     0.24490
C1268       C  0.99132080  0.21843337  0.62439097    -0.23610
C1269       C  0.01451178  0.25405309  0.61466309     0.19400
C1270       C  0.04871645  0.26375862  0.60374612     0.24440
C1271       C  0.06054932  0.23821764  0.60265377    -0.23560
C1272       C  0.03800847  0.20309432  0.61331823     0.19340
F1273       F  0.04855932  0.17773866  0.61234795    -0.13520
F1274       F  0.98258444  0.15897433  0.63387713    -0.15880
F1275       F  0.07021137  0.29806339  0.59401580    -0.15880
F1276       F  0.00350781  0.27908231  0.61462250    -0.13520
C1277       C  0.73813309  0.95382572  0.59944851     0.24490
C1278       C  0.76287374  0.94093277  0.60031643    -0.23610
C1279       C  0.79715926  0.96264566  0.61254243     0.19400
C1280       C  0.80696664  0.99707454  0.62287389     0.24440
C1281       C  0.78260621  0.01040670  0.62134622    -0.23560
C1282       C  0.74783628  0.98816745  0.60996285     0.19340
F1283       F  0.72367172  0.00018304  0.60808609    -0.13520
F1284       F  0.70453554  0.93315920  0.58831570    -0.15880
F1285       F  0.84026360  0.01727357  0.63456753    -0.15880
F1286       F  0.82177812  0.95113876  0.61355990    -0.13520
C1287       C  0.82685085  0.14382543  0.52002858     0.24490
C1288       C  0.85293517  0.14693121  0.53941174    -0.23610
C1289       C  0.88394682  0.14604754  0.53022517     0.19400
C1290       C  0.88881339  0.14235044  0.50231267     0.24440
C1291       C  0.86267040  0.13913407  0.48312065    -0.23560
C1292       C  0.83163525  0.13978673  0.49218396     0.19340
F1293       F  0.80606083  0.13679504  0.47397871    -0.13520
F1294       F  0.79625698  0.14393066  0.52803189    -0.15880
F1295       F  0.91868769  0.14102812  0.49405998    -0.15880
F1296       F  0.90994437  0.14943463  0.54815632    -0.13520
loop_ 
_geom_bond_atom_site_label_1 
_geom_bond_atom_site_label_2 
_geom_bond_distance 
_geom_bond_site_symmetry_2 
_ccdc_geom_bond_type 
Zr1           O2   2.439       .  S
Zr1           O3   2.435       .  S
Zr1           O4   2.437       .  S
Zr1           O7   2.431       .  S
Zr1           O9   2.380       .  S
Zr1          O10   2.380       .  S
Zr1          O11   2.404       .  S
Zr1          O12   2.401       .  S
O2           H58   0.990       .  S
O2           H66   0.990       .  S
O3           C23   1.285       .  A
O4           C25   1.285       .  A
O5          Zr15   2.430       .  S
O5           C24   1.284       .  A
O6          Zr14   2.427       .  S
O6           C25   1.284       .  A
O7           C24   1.285       .  A
O8          Zr16   2.417       .  S
O8           C23   1.281       .  A
O9          Zr14   2.393       .  S
O9          Zr16   2.377       .  S
O10         Zr15   2.390       .  S
O10         Zr16   2.373       .  S
O10          H45   0.966       .  S
O11         Zr14   2.399       .  S
O11         Zr31   2.394       .  S
O11          H48   0.966       .  S
O12         Zr15   2.392       .  S
O12         Zr31   2.397       .  S
Zr13         O38   2.442       .  S
Zr13         O32   2.431       .  S
Zr13         O40   2.428       .  S
Zr13         O28   2.428       .  S
Zr13         O19   2.398       .  S
Zr13         O20   2.400       .  S
Zr13         O21   2.378       .  S
Zr13         O22   2.379       .  S
Zr14         O33   2.436       .  S
Zr14         O26   2.435       .  S
Zr14         O27   2.432       .  S
Zr14         O20   2.394       .  S
Zr14         O21   2.386       .  S
Zr15         O17   2.435       .  S
Zr15         O39   2.437       .  S
Zr15         O41   2.433       .  S
Zr15         O19   2.391       .  S
Zr15         O22   2.384       .  S
Zr16         O42   2.435       .  S
Zr16         O43   2.435       .  S
Zr16         O18   2.436       .  S
Zr16         O19   2.394       .  S
Zr16         O20   2.393       .  S
O17          H54   0.990       .  S
O18          H49   0.990       .  S
O18          H63   0.990       .  S
O20          H46   0.966       .  S
O21         Zr31   2.374       .  S
O22         Zr31   2.376       .  S
O22          H47   0.966       .  S
C23        C1288   1.482       .  S
C24        C1268   1.482       .  S
C25        C1281   1.480       .  S
O26          H62   0.990       .  S
O27          C29   1.285       .  A
O28          C29   1.285       .  A
C29        C1248   1.484       .  S
O30         Zr31   2.439       .  S
O30          H59   0.990       .  S
Zr31         O34   2.437       .  S
Zr31         O35   2.440       .  S
Zr31         O36   2.426       .  S
O32          C37   1.285       .  A
O33          H50   0.990       .  S
O33          H65   0.990       .  S
O34          H51   0.990       .  S
O35          H55   0.990       .  S
O35          H64   0.990       .  S
O36          C37   1.283       .  A
C37        C1258   1.482       .  S
O38          H57   0.990       .  S
O38          H61   0.990       .  S
O39          H53   0.990       .  S
O39          H60   0.990       .  S
O40          C44   1.284       .  A
O41          C44   1.285       .  A
O42          H52   0.990       .  S
O43          H56   0.990       .  S
C44        C1238   1.482       .  S
C67        C1228   1.486       .  S
C67          C68   1.405       .  A
C67          C72   1.406       .  A
C68          C69   1.403       .  A
C68          H73   1.084       .  S
C69        C1218   1.475       .  S
C69          C70   1.401       .  A
C70          C71   1.402       .  A
C70          H74   1.084       .  S
C71        C1261   1.481       .  S
C71          C72   1.404       .  A
C72          H75   1.084       .  S
C76        C1201   1.478       .  S
C76          C77   1.403       .  A
C76          C81   1.404       .  A
C77          C78   1.400       .  A
C77          H82   1.084       .  S
C78        C1291   1.477       .  S
C78          C79   1.401       .  A
C79          C80   1.401       .  A
C79          H83   1.084       .  S
C80        C1208   1.470       .  S
C80          C81   1.403       .  A
C81          H84   1.084       .  S
Zr85         O86   2.440       .  S
Zr85         O87   2.436       .  S
Zr85         O88   2.430       .  S
Zr85         O91   2.427       .  S
Zr85         O93   2.379       .  S
Zr85         O94   2.378       .  S
Zr85         O95   2.404   1_556  S
Zr85         O96   2.401   1_556  S
O86         H142   0.990       .  S
O86         H150   0.990       .  S
O87         C107   1.285       .  A
O88         C109   1.284       .  A
O89         Zr99   2.429   1_656  S
O89         C108   1.284       .  A
O90         Zr98   2.436   1_655  S
O90         C109   1.285       .  A
O91         C108   1.284       .  A
O92        Zr100   2.416       .  S
O92         C107   1.281   1_455  A
O93         Zr98   2.392   1_655  S
O93        Zr100   2.379   1_655  S
O94         Zr99   2.387   1_656  S
O94        Zr100   2.374   1_655  S
O94         H129   0.966       .  S
O95         Zr98   2.397   1_654  S
O95        Zr115   2.395       .  S
O95         H132   0.966       .  S
O96         Zr99   2.390   1_655  S
O96        Zr115   2.399       .  S
Zr97        O122   2.443       .  S
Zr97        O116   2.431       .  S
Zr97        O124   2.434       .  S
Zr97        O112   2.431       .  S
Zr97        O103   2.397   1_554  S
Zr97        O104   2.401   1_554  S
Zr97        O105   2.380       .  S
Zr97        O106   2.380       .  S
Zr98        O117   2.436   1_456  S
Zr98        O110   2.435       .  S
Zr98        O111   2.432   1_556  S
Zr98        O104   2.397       .  S
Zr98        O105   2.387   1_556  S
Zr99        O101   2.434   1_455  S
Zr99        O123   2.437   1_554  S
Zr99        O125   2.425       .  S
Zr99        O103   2.393   1_554  S
Zr99        O106   2.386       .  S
Zr100       O126   2.435       .  S
Zr100       O127   2.435       .  S
Zr100       O102   2.436       .  S
Zr100       O103   2.393       .  S
Zr100       O104   2.392       .  S
O101        H138   0.990       .  S
O102        H133   0.990       .  S
O102        H147   0.990       .  S
O104        H130   0.966       .  S
O105       Zr115   2.372   1_455  S
O106       Zr115   2.376   1_455  S
O106        H131   0.966       .  S
C107       C1191   1.481       .  S
C108       C1231   1.475       .  S
C109       C1181   1.492       .  S
O110        H146   0.990       .  S
O111        C113   1.285       .  A
O112        C113   1.285       .  A
C113       C1168   1.481       .  S
O114       Zr115   2.439       .  S
O114        H143   0.990       .  S
Zr115       O118   2.437       .  S
Zr115       O119   2.440       .  S
Zr115       O120   2.430       .  S
O116        C121   1.285       .  A
O117        H134   0.990       .  S
O117        H149   0.990       .  S
O118        H135   0.990       .  S
O119        H139   0.990       .  S
O119        H148   0.990       .  S
O120        C121   1.284   1_655  A
C121       C1158   1.481       .  S
O122        H141   0.990       .  S
O122        H145   0.990       .  S
O123        H137   0.990       .  S
O123        H144   0.990       .  S
O124        C128   1.285       .  A
O125        C128   1.284       .  A
O126        H136   0.990       .  S
O127        H140   0.990       .  S
C128       C1151   1.476       .  S
C151       C1138   1.493       .  S
C151        C152   1.410       .  A
C151        C156   1.405       .  A
C152        C153   1.408       .  A
C152        H157   1.082       .  S
C153       C1241   1.482       .  S
C153        C154   1.403       .  A
C154        C155   1.398       .  A
C154        H158   1.084       .  S
C155       C1188   1.476       .  S
C155        C156   1.398       .  A
C156        H159   1.083       .  S
C160       C1121   1.486       .  S
C160        C161   1.405       .  A
C160        C165   1.406       .  A
C161        C162   1.403       .  A
C161        H166   1.083       .  S
C162       C1161   1.483       .  S
C162        C163   1.403       .  A
C163        C164   1.403       .  A
C163        H167   1.084       .  S
C164       C1128   1.482       .  S
C164        C165   1.405       .  A
C165        H168   1.084       .  S
Zr169       O170   2.439       .  S
Zr169       O171   2.435       .  S
Zr169       O172   2.439       .  S
Zr169       O175   2.430       .  S
Zr169       O177   2.379       .  S
Zr169       O178   2.383       .  S
Zr169       O179   2.403   1_554  S
Zr169       O180   2.402   1_554  S
O170        H226   0.990       .  S
O170        H234   0.990       .  S
O171        C191   1.285       .  A
O172        C193   1.285       .  A
O173       Zr183   2.433   1_565  S
O173        C192   1.285       .  A
O174       Zr182   2.423       .  S
O174        C193   1.283       .  A
O175        C192   1.285       .  A
O176       Zr184   2.422       .  S
O176        C191   1.282   1_545  A
O177       Zr182   2.393       .  S
O177       Zr184   2.377   1_565  S
O178       Zr183   2.391   1_565  S
O178       Zr184   2.372   1_565  S
O178        H213   0.966       .  S
O179       Zr182   2.399   1_556  S
O179       Zr199   2.394       .  S
O179        H216   0.966       .  S
O180       Zr183   2.395   1_566  S
O180       Zr199   2.396       .  S
Zr181       O206   2.443       .  S
Zr181       O200   2.432       .  S
Zr181       O208   2.420       .  S
Zr181       O196   2.425       .  S
Zr181       O187   2.400   1_556  S
Zr181       O188   2.400   1_556  S
Zr181       O189   2.375       .  S
Zr181       O190   2.379       .  S
Zr182       O201   2.436   1_554  S
Zr182       O194   2.435   1_565  S
Zr182       O195   2.433   1_564  S
Zr182       O188   2.392   1_565  S
Zr182       O189   2.386   1_564  S
Zr183       O185   2.435   1_544  S
Zr183       O207   2.437       .  S
Zr183       O209   2.440   1_554  S
Zr183       O187   2.391       .  S
Zr183       O190   2.385   1_554  S
Zr184       O210   2.435       .  S
Zr184       O211   2.435       .  S
Zr184       O186   2.436       .  S
Zr184       O187   2.395       .  S
Zr184       O188   2.395       .  S
O185        H222   0.990       .  S
O186        H217   0.990       .  S
O186        H231   0.990       .  S
O188        H214   0.966       .  S
O189       Zr199   2.375   1_545  S
O190       Zr199   2.375   1_545  S
O190        H215   0.966       .  S
C191       C1088   1.481       .  S
C192       C1068   1.482       .  S
C193       C1078   1.478       .  S
O194        H230   0.990       .  S
O195        C197   1.285       .  A
O196        C197   1.284       .  A
C197       C1221   1.483       .  S
O198       Zr199   2.439       .  S
O198        H227   0.990       .  S
Zr199       O202   2.437       .  S
Zr199       O203   2.439       .  S
Zr199       O204   2.426       .  S
O200        C205   1.285       .  A
O201        H218   0.990       .  S
O201        H233   0.990       .  S
O202        H219   0.990       .  S
O203        H223   0.990       .  S
O203        H232   0.990       .  S
O204        C205   1.283   1_565  A
C205       C1111   1.483       .  S
O206        H225   0.990       .  S
O206        H229   0.990       .  S
O207        H221   0.990       .  S
O207        H228   0.990       .  S
O208        C212   1.283       .  A
O209        C212   1.286       .  A
O210        H220   0.990       .  S
O211        H224   0.990       .  S
C212       C1101   1.479       .  S
C235       C1061   1.487       .  S
C235        C236   1.406       .  A
C235        C240   1.406       .  A
C236        C237   1.403       .  A
C236        H241   1.084       .  S
C237       C1251   1.475       .  S
C237        C238   1.401       .  A
C238        C239   1.401       .  A
C238        H242   1.084       .  S
C239       C1108   1.479       .  S
C239        C240   1.403       .  A
C240        H243   1.084       .  S
C244       C1038   1.471       .  S
C244        C245   1.401       .  A
C244        C249   1.402       .  A
C245        C246   1.402       .  A
C245        H250   1.084       .  S
C246       C1091   1.480       .  S
C246        C247   1.402       .  A
C247        C248   1.404       .  A
C247        H251   1.084       .  S
C248       C1051   1.476       .  S
C248        C249   1.403       .  A
C249        H252   1.084       .  S
Zr253       O254   2.439       .  S
Zr253       O255   2.432       .  S
Zr253       O256   2.434       .  S
Zr253       O259   2.423       .  S
Zr253       O261   2.379       .  S
Zr253       O262   2.380       .  S
Zr253       O263   2.402       .  S
Zr253       O264   2.400       .  S
O254        H310   0.990       .  S
O254        H318   0.990       .  S
O255        C275   1.284       .  A
O256        C277   1.285       .  A
O257       Zr267   2.434       .  S
O257        C276   1.285       .  A
O258       Zr266   2.431       .  S
O258        C277   1.284       .  A
O259        C276   1.284       .  A
O260       Zr268   2.425       .  S
O260        C275   1.282       .  A
O261       Zr266   2.392       .  S
O261       Zr268   2.376       .  S
O262       Zr267   2.391       .  S
O262       Zr268   2.373       .  S
O262        H297   0.966       .  S
O263       Zr266   2.400       .  S
O263       Zr283   2.394       .  S
O263        H300   0.966       .  S
O264       Zr267   2.393       .  S
O264       Zr283   2.396       .  S
Zr265       O290   2.442       .  S
Zr265       O284   2.431       .  S
Zr265       O292   2.425       .  S
Zr265       O280   2.424       .  S
Zr265       O271   2.398       .  S
Zr265       O272   2.402       .  S
Zr265       O273   2.375       .  S
Zr265       O274   2.378       .  S
Zr266       O285   2.436       .  S
Zr266       O278   2.435       .  S
Zr266       O279   2.434       .  S
Zr266       O272   2.394       .  S
Zr266       O273   2.387       .  S
Zr267       O269   2.435       .  S
Zr267       O291   2.437       .  S
Zr267       O293   2.438       .  S
Zr267       O271   2.392       .  S
Zr267       O274   2.386       .  S
Zr268       O294   2.435       .  S
Zr268       O295   2.435       .  S
Zr268       O270   2.436       .  S
Zr268       O271   2.397       .  S
Zr268       O272   2.395       .  S
O269        H306   0.990       .  S
O270        H301   0.990       .  S
O270        H315   0.990       .  S
O272        H298   0.966       .  S
O273       Zr283   2.374       .  S
O274       Zr283   2.377       .  S
O274        H299   0.966       .  S
C275       C1028   1.481       .  S
C276       C1048   1.486       .  S
C277       C1131   1.480       .  S
O278        H314   0.990       .  S
O279        C281   1.285       .  A
O280        C281   1.284       .  A
C281       C1008   1.476       .  S
O282       Zr283   2.439       .  S
O282        H311   0.990       .  S
Zr283       O286   2.437       .  S
Zr283       O287   2.440       .  S
Zr283       O288   2.426       .  S
O284        C289   1.285       .  A
O285        H302   0.990       .  S
O285        H317   0.990       .  S
O286        H303   0.990       .  S
O287        H307   0.990       .  S
O287        H316   0.990       .  S
O288        C289   1.283       .  A
C289       C1018   1.485       .  S
O290        H309   0.990       .  S
O290        H313   0.990       .  S
O291        H305   0.990       .  S
O291        H312   0.990       .  S
O292        C296   1.284       .  A
O293        C296   1.286       .  A
O294        H304   0.990       .  S
O295        H308   0.990       .  S
C296        C998   1.491       .  S
C319       C1071   1.483       .  S
C319        C320   1.405       .  A
C319        C324   1.404       .  A
C320        C321   1.404       .  A
C320        H325   1.084       .  S
C321       C1171   1.480       .  S
C321        C322   1.403       .  A
C322        C323   1.402       .  A
C322        H326   1.084       .  S
C323       C1031   1.482       .  S
C323        C324   1.404       .  A
C324        H327   1.084       .  S
C328        C978   1.477       .  S
C328        C329   1.402       .  A
C328        C333   1.403       .  A
C329        C330   1.400       .  A
C329        H334   1.084       .  S
C330       C1021   1.477       .  S
C330        C331   1.401       .  A
C331        C332   1.405       .  A
C331        H335   1.084       .  S
C332        C988   1.482       .  S
C332        C333   1.407       .  A
C333        H336   1.084       .  S
Zr337       O338   2.438       .  S
Zr337       O339   2.433       .  S
Zr337       O340   2.429       .  S
Zr337       O343   2.427       .  S
Zr337       O345   2.377       .  S
Zr337       O346   2.376       .  S
Zr337       O347   2.404       .  S
Zr337       O348   2.401       .  S
O338        H394   0.990       .  S
O338        H402   0.990       .  S
O339        C359   1.284       .  A
O340        C361   1.284       .  A
O341       Zr351   2.431       .  S
O341        C360   1.284       .  A
O342       Zr350   2.430       .  S
O342        C361   1.283       .  A
O343        C360   1.285       .  A
O344       Zr352   2.429       .  S
O344        C359   1.283       .  A
O345       Zr350   2.392       .  S
O345       Zr352   2.374       .  S
O346       Zr351   2.391       .  S
O346       Zr352   2.373       .  S
O346        H381   0.966       .  S
O347       Zr350   2.396       .  S
O347       Zr367   2.393       .  S
O347        H384   0.966       .  S
O348       Zr351   2.389       .  S
O348       Zr367   2.397       .  S
Zr349       O374   2.443       .  S
Zr349       O368   2.435       .  S
Zr349       O376   2.433       .  S
Zr349       O364   2.435       .  S
Zr349       O355   2.399       .  S
Zr349       O356   2.402       .  S
Zr349       O357   2.380       .  S
Zr349       O358   2.380       .  S
Zr350       O369   2.436       .  S
Zr350       O362   2.435       .  S
Zr350       O363   2.429       .  S
Zr350       O356   2.396       .  S
Zr350       O357   2.385       .  S
Zr351       O353   2.435       .  S
Zr351       O375   2.437       .  S
Zr351       O377   2.429       .  S
Zr351       O355   2.394       .  S
Zr351       O358   2.383       .  S
Zr352       O378   2.435       .  S
Zr352       O379   2.435       .  S
Zr352       O354   2.436       .  S
Zr352       O355   2.399       .  S
Zr352       O356   2.395       .  S
O353        H390   0.990       .  S
O354        H385   0.990       .  S
O354        H399   0.990       .  S
O356        H382   0.966       .  S
O357       Zr367   2.373       .  S
O358       Zr367   2.376       .  S
O358        H383   0.966       .  S
C359        C948   1.483       .  S
C360        C941   1.472       .  S
C361       C1141   1.470       .  S
O362        H398   0.990       .  S
O363        C365   1.285       .  A
O364        C365   1.286       .  A
C365        C991   1.480       .  S
O366       Zr367   2.439       .  S
O366        H395   0.990       .  S
Zr367       O370   2.437       .  S
Zr367       O371   2.440       .  S
Zr367       O372   2.424       .  S
O368        C373   1.286       .  A
O369        H386   0.990       .  S
O369        H401   0.990       .  S
O370        H387   0.990       .  S
O371        H391   0.990       .  S
O371        H400   0.990       .  S
O372        C373   1.283       .  A
C373        C968   1.478       .  S
O374        H393   0.990       .  S
O374        H397   0.990       .  S
O375        H389   0.990       .  S
O375        H396   0.990       .  S
O376        C380   1.285       .  A
O377        C380   1.284       .  A
O378        H388   0.990       .  S
O379        H392   0.990       .  S
C380        C958   1.478       .  S
C403       C1178   1.474       .  S
C403        C404   1.402       .  A
C403        C408   1.403       .  A
C404        C405   1.403       .  A
C404        H409   1.084       .  S
C405        C951   1.484       .  S
C405        C406   1.405       .  A
C406        C407   1.403       .  A
C406        H410   1.084       .  S
C407        C931   1.474       .  S
C407        C408   1.403       .  A
C408        H411   1.084       .  S
C412       C1011   1.488       .  S
C412        C413   1.405       .  A
C412        C417   1.406       .  A
C413        C414   1.402       .  A
C413        H418   1.083       .  S
C414        C971   1.485       .  S
C414        C415   1.403       .  A
C415        C416   1.404       .  A
C415        H419   1.084       .  S
C416        C918   1.482       .  S
C416        C417   1.406       .  A
C417        H420   1.083       .  S
Zr421       O422   2.438       .  S
Zr421       O423   2.432       .  S
Zr421       O424   2.431       .  S
Zr421       O427   2.423       .  S
Zr421       O429   2.380       .  S
Zr421       O430   2.378       .  S
Zr421       O431   2.402       .  S
Zr421       O432   2.399       .  S
O422        H478   0.990       .  S
O422        H486   0.990       .  S
O423        C443   1.284       .  A
O424        C445   1.284       .  A
O425       Zr435   2.432       .  S
O425        C444   1.285       .  A
O426       Zr434   2.435       .  S
O426        C445   1.285       .  A
O427        C444   1.284       .  A
O428       Zr436   2.424       .  S
O428        C443   1.282       .  A
O429       Zr434   2.392       .  S
O429       Zr436   2.376       .  S
O430       Zr435   2.389       .  S
O430       Zr436   2.373       .  S
O430        H465   0.966       .  S
O431       Zr434   2.399       .  S
O431       Zr451   2.395       .  S
O431        H468   0.966       .  S
O432       Zr435   2.390       .  S
O432       Zr451   2.396       .  S
Zr433       O458   2.443       .  S
Zr433       O452   2.431       .  S
Zr433       O460   2.429       .  S
Zr433       O448   2.423       .  S
Zr433       O439   2.398       .  S
Zr433       O440   2.402       .  S
Zr433       O441   2.377       .  S
Zr433       O442   2.378       .  S
Zr434       O453   2.436       .  S
Zr434       O446   2.435       .  S
Zr434       O447   2.436       .  S
Zr434       O440   2.396       .  S
Zr434       O441   2.388       .  S
Zr435       O437   2.435       .  S
Zr435       O459   2.437       .  S
Zr435       O461   2.431       .  S
Zr435       O439   2.393       .  S
Zr435       O442   2.385       .  S
Zr436       O462   2.435       .  S
Zr436       O463   2.435       .  S
Zr436       O438   2.436       .  S
Zr436       O439   2.397       .  S
Zr436       O440   2.394       .  S
O437        H474   0.990       .  S
O438        H469   0.990       .  S
O438        H483   0.990       .  S
O440        H466   0.966       .  S
O441       Zr451   2.373       .  S
O442       Zr451   2.375       .  S
O442        H467   0.966       .  S
C443        C891   1.478       .  S
C444       C1211   1.492       .  S
C445        C878   1.484       .  S
O446        H482   0.990       .  S
O447        C449   1.286       .  A
O448        C449   1.284       .  A
C449        C908   1.478       .  S
O450       Zr451   2.439       .  S
O450        H479   0.990       .  S
Zr451       O454   2.437       .  S
Zr451       O455   2.440       .  S
Zr451       O456   2.427       .  S
O452        C457   1.285       .  A
O453        H470   0.990       .  S
O453        H485   0.990       .  S
O454        H471   0.990       .  S
O455        H475   0.990       .  S
O455        H484   0.990       .  S
O456        C457   1.283       .  A
C457        C898   1.487       .  S
O458        H477   0.990       .  S
O458        H481   0.990       .  S
O459        H473   0.990       .  S
O459        H480   0.990       .  S
O460        C464   1.285       .  A
O461        C464   1.285       .  A
O462        H472   0.990       .  S
O463        H476   0.990       .  S
C464       C1118   1.477       .  S
C487       C1148   1.484       .  S
C487        C488   1.404       .  A
C487        C492   1.406       .  A
C488        C489   1.399       .  A
C488        H493   1.084       .  S
C489        C901   1.475       .  S
C489        C490   1.400       .  A
C490        C491   1.405       .  A
C490        H494   1.084       .  S
C491        C871   1.487       .  S
C491        C492   1.408       .  A
C492        H495   1.083       .  S
C496        C858   1.485       .  S
C496        C497   1.405       .  A
C496        C501   1.404       .  A
C497        C498   1.404       .  A
C497        H502   1.084       .  S
C498       C1271   1.482       .  S
C498        C499   1.404       .  A
C499        C500   1.404       .  A
C499        H503   1.084       .  S
C500        C888   1.485       .  S
C500        C501   1.403       .  A
C501        H504   1.084       .  S
Zr505       O506   2.438       .  S
Zr505       O507   2.431       .  S
Zr505       O508   2.430       .  S
Zr505       O511   2.427       .  S
Zr505       O513   2.378       .  S
Zr505       O514   2.377       .  S
Zr505       O515   2.403       .  S
Zr505       O516   2.400       .  S
O506        H562   0.990       .  S
O506        H570   0.990       .  S
O507        C527   1.284       .  A
O508        C529   1.284       .  A
O509       Zr519   2.434       .  S
O509        C528   1.284       .  A
O510       Zr518   2.432       .  S
O510        C529   1.284       .  A
O511        C528   1.285       .  A
O512       Zr520   2.426       .  S
O512        C527   1.283       .  A
O513       Zr518   2.391       .  S
O513       Zr520   2.375       .  S
O514       Zr519   2.391       .  S
O514       Zr520   2.374       .  S
O514        H549   0.966       .  S
O515       Zr518   2.397       .  S
O515       Zr535   2.395       .  S
O515        H552   0.966       .  S
O516       Zr519   2.391       .  S
O516       Zr535   2.398       .  S
Zr517       O542   2.443       .  S
Zr517       O536   2.432       .  S
Zr517       O544   2.429       .  S
Zr517       O532   2.425       .  S
Zr517       O523   2.397       .  S
Zr517       O524   2.402       .  S
Zr517       O525   2.377       .  S
Zr517       O526   2.379       .  S
Zr518       O537   2.436       .  S
Zr518       O530   2.435       .  S
Zr518       O531   2.432       .  S
Zr518       O524   2.395       .  S
Zr518       O525   2.387       .  S
Zr519       O521   2.435       .  S
Zr519       O543   2.437       .  S
Zr519       O545   2.432       .  S
Zr519       O523   2.394       .  S
Zr519       O526   2.385       .  S
Zr520       O546   2.435       .  S
Zr520       O547   2.435       .  S
Zr520       O522   2.436       .  S
Zr520       O523   2.397       .  S
Zr520       O524   2.395       .  S
O521        H558   0.990       .  S
O522        H553   0.990       .  S
O522        H567   0.990       .  S
O524        H550   0.966       .  S
O525       Zr535   2.372       .  S
O526       Zr535   2.376       .  S
O526        H551   0.966       .  S
C527        C841   1.482       .  S
C528        C828   1.474       .  S
C529       C1041   1.493       .  S
O530        H566   0.990       .  S
O531        C533   1.285       .  A
O532        C533   1.284       .  A
C533       C1198   1.481       .  S
O534       Zr535   2.439       .  S
O534        H563   0.990       .  S
Zr535       O538   2.437       .  S
Zr535       O539   2.439       .  S
Zr535       O540   2.429       .  S
O536        C541   1.285       .  A
O537        H554   0.990       .  S
O537        H569   0.990       .  S
O538        H555   0.990       .  S
O539        H559   0.990       .  S
O539        H568   0.990       .  S
O540        C541   1.283       .  A
C541        C848   1.493       .  S
O542        H561   0.990       .  S
O542        H565   0.990       .  S
O543        H557   0.990       .  S
O543        H564   0.990       .  S
O544        C548   1.285       .  A
O545        C548   1.285       .  A
O546        H556   0.990       .  S
O547        H560   0.990       .  S
C548        C921   1.482       .  S
C571       C1081   1.484       .  S
C571        C572   1.405       .  A
C571        C576   1.408       .  A
C572        C573   1.400       .  A
C572        H577   1.084       .  S
C573        C838   1.481       .  S
C573        C574   1.401       .  A
C574        C575   1.403       .  A
C574        H578   1.084       .  S
C575        C821   1.482       .  S
C575        C576   1.405       .  A
C576        H579   1.083       .  S
C580       C1278   1.483       .  S
C580        C581   1.406       .  A
C580        C585   1.404       .  A
C581        C582   1.407       .  A
C581        H586   1.084       .  S
C582        C961   1.484       .  S
C582        C583   1.405       .  A
C583        C584   1.399       .  A
C583        H587   1.084       .  S
C584        C851   1.472       .  S
C584        C585   1.399       .  A
C585        H588   1.084       .  S
Zr589       O590   2.440       .  S
Zr589       O591   2.435       .  S
Zr589       O592   2.431       .  S
Zr589       O595   2.421       .  S
Zr589       O597   2.379       .  S
Zr589       O598   2.378       .  S
Zr589       O599   2.402       .  S
Zr589       O600   2.400       .  S
O590        H646   0.990       .  S
O590        H654   0.990       .  S
O591        C611   1.285       .  A
O592        C613   1.284       .  A
O593       Zr603   2.434       .  S
O593        C612   1.285       .  A
O594       Zr602   2.431       .  S
O594        C613   1.284       .  A
O595        C612   1.284       .  A
O596       Zr604   2.424       .  S
O596        C611   1.282       .  A
O597       Zr602   2.394       .  S
O597       Zr604   2.376       .  S
O598       Zr603   2.392       .  S
O598       Zr604   2.374       .  S
O598        H633   0.966       .  S
O599       Zr602   2.399       .  S
O599       Zr619   2.394       .  S
O599        H636   0.966       .  S
O600       Zr603   2.391       .  S
O600       Zr619   2.394       .  S
Zr601       O626   2.444       .  S
Zr601       O620   2.435       .  S
Zr601       O628   2.428       .  S
Zr601       O616   2.428       .  S
Zr601       O607   2.399       .  S
Zr601       O608   2.401       .  S
Zr601       O609   2.377       .  S
Zr601       O610   2.380       .  S
Zr602       O621   2.436       .  S
Zr602       O614   2.435       .  S
Zr602       O615   2.435       .  S
Zr602       O608   2.394       .  S
Zr602       O609   2.387       .  S
Zr603       O605   2.435       .  S
Zr603       O627   2.437       .  S
Zr603       O629   2.433       .  S
Zr603       O607   2.394       .  S
Zr603       O610   2.385       .  S
Zr604       O630   2.435       .  S
Zr604       O631   2.435       .  S
Zr604       O606   2.436       .  S
Zr604       O607   2.397       .  S
Zr604       O608   2.394       .  S
O605        H642   0.990       .  S
O606        H637   0.990       .  S
O606        H651   0.990       .  S
O608        H634   0.966       .  S
O609       Zr619   2.376       .  S
O610       Zr619   2.376       .  S
O610        H635   0.966       .  S
C611        C808   1.480       .  S
C612        C981   1.484       .  S
C613        C861   1.476       .  S
O614        H650   0.990       .  S
O615        C617   1.286       .  A
O616        C617   1.284       .  A
C617        C798   1.489       .  S
O618       Zr619   2.439       .  S
O618        H647   0.990       .  S
Zr619       O622   2.437       .  S
Zr619       O623   2.439       .  S
Zr619       O624   2.422       .  S
O620        C625   1.286       .  A
O621        H638   0.990       .  S
O621        H653   0.990       .  S
O622        H639   0.990       .  S
O623        H643   0.990       .  S
O623        H652   0.990       .  S
O624        C625   1.282       .  A
C625        C788   1.476       .  S
O626        H645   0.990       .  S
O626        H649   0.990       .  S
O627        H641   0.990       .  S
O627        H648   0.990       .  S
O628        C632   1.284       .  A
O629        C632   1.285       .  A
O630        H640   0.990       .  S
O631        H644   0.990       .  S
C632       C1058   1.475       .  S
C655       C1098   1.484       .  S
C655        C656   1.407       .  A
C655        C660   1.405       .  A
C656        C657   1.408       .  A
C656        H661   1.083       .  S
C657        C778   1.488       .  S
C657        C658   1.405       .  A
C658        C659   1.401       .  A
C658        H662   1.084       .  S
C659        C791   1.485       .  S
C659        C660   1.401       .  A
C660        H663   1.083       .  S
C664       C1001   1.476       .  S
C664        C665   1.402       .  A
C664        C669   1.402       .  A
C665        C666   1.404       .  A
C665        H670   1.084       .  S
C666        C881   1.480       .  S
C666        C667   1.404       .  A
C667        C668   1.404       .  A
C667        H671   1.084       .  S
C668        C811   1.486       .  S
C668        C669   1.405       .  A
C669        H672   1.084       .  S
Zr673       O674   2.439       .  S
Zr673       O675   2.431       .  S
Zr673       O676   2.431       .  S
Zr673       O679   2.425       .  S
Zr673       O681   2.377       .  S
Zr673       O682   2.378       .  S
Zr673       O683   2.402   1_556  S
Zr673       O684   2.399   1_556  S
O674        H730   0.990       .  S
O674        H738   0.990       .  S
O675        C695   1.284       .  A
O676        C697   1.284       .  A
O677       Zr687   2.438       .  S
O677        C696   1.286       .  A
O678       Zr686   2.430   1_556  S
O678        C697   1.283       .  A
O679        C696   1.284       .  A
O680       Zr688   2.421       .  S
O680        C695   1.281       .  A
O681       Zr686   2.393   1_556  S
O681       Zr688   2.377       .  S
O682       Zr687   2.390       .  S
O682       Zr688   2.374       .  S
O682        H717   0.966       .  S
O683       Zr686   2.397       .  S
O683       Zr703   2.394       .  S
O683        H720   0.966       .  S
O684       Zr687   2.391   1_554  S
O684       Zr703   2.396       .  S
Zr685       O710   2.445       .  S
Zr685       O704   2.433       .  S
Zr685       O712   2.427       .  S
Zr685       O700   2.433       .  S
Zr685       O691   2.400   1_554  S
Zr685       O692   2.400   1_554  S
Zr685       O693   2.378       .  S
Zr685       O694   2.381       .  S
Zr686       O705   2.436       .  S
Zr686       O698   2.435   1_554  S
Zr686       O699   2.431       .  S
Zr686       O692   2.397   1_554  S
Zr686       O693   2.387       .  S
Zr687       O689   2.435   1_556  S
Zr687       O711   2.437       .  S
Zr687       O713   2.435   1_556  S
Zr687       O691   2.395       .  S
Zr687       O694   2.387   1_556  S
Zr688       O714   2.435       .  S
Zr688       O715   2.435       .  S
Zr688       O690   2.436       .  S
Zr688       O691   2.395       .  S
Zr688       O692   2.393       .  S
O689        H726   0.990       .  S
O690        H721   0.990       .  S
O690        H735   0.990       .  S
O692        H718   0.966       .  S
O693       Zr703   2.375       .  S
O694       Zr703   2.375       .  S
O694        H719   0.966       .  S
C695        C768   1.478       .  S
C696        C928   1.495       .  S
C697        C781   1.474       .  S
O698        H734   0.990       .  S
O699        C701   1.284       .  A
O700        C701   1.285       .  A
C701        C868   1.475       .  S
O702       Zr703   2.439       .  S
O702        H731   0.990       .  S
Zr703       O706   2.437       .  S
Zr703       O707   2.439       .  S
Zr703       O708   2.424       .  S
O704        C709   1.285       .  A
O705        H722   0.990       .  S
O705        H737   0.990       .  S
O706        H723   0.990       .  S
O707        H727   0.990       .  S
O707        H736   0.990       .  S
O708        C709   1.282       .  A
C709        C761   1.481       .  S
O710        H729   0.990       .  S
O710        H733   0.990       .  S
O711        H725   0.990       .  S
O711        H732   0.990       .  S
O712        C716   1.285       .  A
O713        C716   1.285       .  A
O714        H724   0.990       .  S
O715        H728   0.990       .  S
C716        C818   1.484       .  S
C739        C938   1.492       .  S
C739        C740   1.407       .  A
C739        C744   1.408       .  A
C740        C741   1.402       .  A
C740        H745   1.083       .  S
C741        C771   1.483       .  S
C741        C742   1.400       .  A
C742        C743   1.401       .  A
C742        H746   1.084       .  S
C743        C801   1.474       .  S
C743        C744   1.405       .  A
C744        H747   1.083       .  S
C748        C831   1.492       .  S
C748        C749   1.409       .  A
C748        C753   1.409       .  A
C749        C750   1.406       .  A
C749        H754   1.083       .  S
C750        C911   1.481       .  S
C750        C751   1.402       .  A
C751        C752   1.399       .  A
C751        H755   1.084       .  S
C752        C758   1.483       .  S
C752        C753   1.401       .  A
C753        H756   1.083       .  S
C757        C758   1.408       .  A
C757        C762   1.397       .  A
C757        F764   1.358       .  S
C758        C759   1.405       .  A
C759        C760   1.400       .  A
C759        F766   1.358       .  S
C760        C761   1.410       .  A
C760        F765   1.358       .  S
C761        C762   1.406       .  A
C762        F763   1.358       .  S
C767        C768   1.405       .  A
C767        C772   1.396       .  A
C767        F774   1.358       .  S
C768        C769   1.409       .  A
C769        C770   1.400       .  A
C769        F776   1.358       .  S
C770        C771   1.406       .  A
C770        F775   1.358       .  S
C771        C772   1.408       .  A
C772        F773   1.358       .  S
C777        C778   1.409       .  A
C777        C782   1.403       .  A
C777        F784   1.358       .  S
C778        C779   1.410       .  A
C779        C780   1.394       .  A
C779        F786   1.358       .  S
C780        C781   1.403       .  A
C780        F785   1.358       .  S
C781        C782   1.407       .  A
C782        F783   1.358       .  S
C787        C788   1.407       .  A
C787        C792   1.400       .  A
C787        F794   1.358       .  S
C788        C789   1.404       .  A
C789        C790   1.396       .  A
C789        F796   1.358       .  S
C790        C791   1.409       .  A
C790        F795   1.358       .  S
C791        C792   1.407       .  A
C792        F793   1.358       .  S
C797        C798   1.414       .  A
C797        C802   1.398       .  A
C797        F804   1.357       .  S
C798        C799   1.412       .  A
C799        C800   1.399       .  A
C799        F806   1.358       .  S
C800        C801   1.402       .  A
C800        F805   1.358       .  S
C801        C802   1.401       .  A
C802        F803   1.358       .  S
C807        C808   1.405       .  A
C807        C812   1.398       .  A
C807        F814   1.356       .  S
C808        C809   1.407       .  A
C809        C810   1.401       .  A
C809        F816   1.358       .  S
C810        C811   1.408       .  A
C810        F815   1.358       .  S
C811        C812   1.408       .  A
C812        F813   1.358       .  S
C817        C818   1.411       .  A
C817        C822   1.403       .  A
C817        F824   1.358       .  S
C818        C819   1.408       .  A
C819        C820   1.395       .  A
C819        F826   1.358       .  S
C820        C821   1.405       .  A
C820        F825   1.358       .  S
C821        C822   1.406       .  A
C822        F823   1.358       .  S
C827        C828   1.405       .  A
C827        C832   1.404       .  A
C827        F834   1.358       .  S
C828        C829   1.401       .  A
C829        C830   1.394       .  A
C829        F836   1.355       .  S
C830        C831   1.411       .  A
C830        F835   1.358       .  S
C831        C832   1.412       .  A
C832        F833   1.357       .  S
C837        C838   1.405       .  A
C837        C842   1.396       .  A
C837        F844   1.358       .  S
C838        C839   1.406       .  A
C839        C840   1.401       .  A
C839        F846   1.358       .  S
C840        C841   1.409       .  A
C840        F845   1.358       .  S
C841        C842   1.407       .  A
C842        F843   1.355       .  S
C847        C848   1.416       .  A
C847        C852   1.399       .  A
C847        F854   1.358       .  S
C848        C849   1.414       .  A
C849        C850   1.399       .  A
C849        F856   1.357       .  S
C850        C851   1.401       .  A
C850        F855   1.358       .  S
C851        C852   1.399       .  A
C852        F853   1.358       .  S
C857        C858   1.409       .  A
C857        C862   1.399       .  A
C857        F864   1.358       .  S
C858        C859   1.408       .  A
C859        C860   1.398       .  A
C859        F866   1.358       .  S
C860        C861   1.406       .  A
C860        F865   1.358       .  S
C861        C862   1.405       .  A
C862        F863   1.358       .  S
C867        C868   1.405       .  A
C867        C872   1.397       .  A
C867        F874   1.357       .  S
C868        C869   1.405       .  A
C869        C870   1.400       .  A
C869        F876   1.358       .  S
C870        C871   1.410       .  A
C870        F875   1.358       .  S
C871        C872   1.409       .  A
C872        F873   1.358       .  S
C877        C878   1.409       .  A
C877        C882   1.400       .  A
C877        F884   1.358       .  S
C878        C879   1.410       .  A
C879        C880   1.398       .  A
C879        F886   1.357       .  S
C880        C881   1.404       .  A
C880        F885   1.358       .  S
C881        C882   1.405       .  A
C882        F883   1.358       .  S
C887        C888   1.408       .  A
C887        C892   1.399       .  A
C887        F894   1.358       .  S
C888        C889   1.407       .  A
C889        C890   1.398       .  A
C889        F896   1.358       .  S
C890        C891   1.407       .  A
C890        F895   1.358       .  S
C891        C892   1.406       .  A
C892        F893   1.358       .  S
C897        C898   1.412       .  A
C897        C902   1.397       .  A
C897        F904   1.358       .  S
C898        C899   1.411       .  A
C899        C900   1.400       .  A
C899        F906   1.358       .  S
C900        C901   1.403       .  A
C900        F905   1.358       .  S
C901        C902   1.401       .  A
C902        F903   1.358       .  S
C907        C908   1.407       .  A
C907        C912   1.395       .  A
C907        F914   1.358       .  S
C908        C909   1.408       .  A
C909        C910   1.402       .  A
C909        F916   1.358       .  S
C910        C911   1.406       .  A
C910        F915   1.358       .  S
C911        C912   1.407       .  A
C912        F913   1.358       .  S
C917        C918   1.406       .  A
C917        C922   1.400       .  A
C917        F924   1.358       .  S
C918        C919   1.405       .  A
C919        C920   1.398       .  A
C919        F926   1.358       .  S
C920        C921   1.409       .  A
C920        F925   1.357       .  S
C921        C922   1.409       .  A
C922        F923   1.358       .  S
C927        C928   1.416       .  A
C927        C932   1.403       .  A
C927        F934   1.358       .  S
C928        C929   1.415       .  A
C929        C930   1.396       .  A
C929        F936   1.358       .  S
C930        C931   1.400       .  A
C930        F935   1.358       .  S
C931        C932   1.401       .  A
C932        F933   1.358       .  S
C937        C938   1.412       .  A
C937        C942   1.392       .  A
C937        F944   1.357       .  S
C938        C939   1.413       .  A
C939        C940   1.404       .  A
C939        F946   1.357       .  S
C940        C941   1.404       .  A
C940        F945   1.358       .  S
C941        C942   1.399       .  A
C942        F943   1.355       .  S
C947        C948   1.406       .  A
C947        C952   1.397       .  A
C947        F954   1.355       .  S
C948        C949   1.408       .  A
C949        C950   1.401       .  A
C949        F956   1.358       .  S
C950        C951   1.407       .  A
C950        F955   1.358       .  S
C951        C952   1.406       .  A
C952        F953   1.358       .  S
C957        C958   1.406       .  A
C957        C962   1.398       .  A
C957        F964   1.357       .  S
C958        C959   1.407       .  A
C959        C960   1.400       .  A
C959        F966   1.358       .  S
C960        C961   1.408       .  A
C960        F965   1.358       .  S
C961        C962   1.407       .  A
C962        F963   1.358       .  S
C967        C968   1.405       .  A
C967        C972   1.399       .  A
C967        F974   1.358       .  S
C968        C969   1.407       .  A
C969        C970   1.399       .  A
C969        F976   1.358       .  S
C970        C971   1.407       .  A
C970        F975   1.358       .  S
C971        C972   1.409       .  A
C972        F973   1.358       .  S
C977        C978   1.405       .  A
C977        C982   1.402       .  A
C977        F984   1.358       .  S
C978        C979   1.403       .  A
C979        C980   1.394   1_565  A
C979        F986   1.358       .  S
C980        C981   1.410       .  A
C980        F985   1.357       .  S
C981        C982   1.411   1_545  A
C982        F983   1.358       .  S
C987        C988   1.407       .  A
C987        C992   1.400       .  A
C987        F994   1.358       .  S
C988        C989   1.406       .  A
C989        C990   1.397       .  A
C989        F996   1.358       .  S
C990        C991   1.407   1_455  A
C990        F995   1.357   1_455  S
C991        C992   1.408   1_655  A
C992        F993   1.358   1_455  S
C997        C998   1.413   1_545  A
C997       C1002   1.402       .  A
C997       F1004   1.358       .  S
C998        C999   1.413   1_565  A
C999       C1000   1.397       .  A
C999       F1006   1.358   1_545  S
C1000      C1001   1.401       .  A
C1000      F1005   1.358       .  S
C1001      C1002   1.402       .  A
C1002      F1003   1.358       .  S
C1007      C1008   1.406   1_655  A
C1007      C1012   1.402       .  A
C1007      F1014   1.358       .  S
C1008      C1009   1.404       .  A
C1009      C1010   1.395   1_455  A
C1009      F1016   1.358       .  S
C1010      C1011   1.409       .  A
C1010      F1015   1.358       .  S
C1011      C1012   1.409       .  A
C1012      F1013   1.358       .  S
C1017      C1018   1.412       .  A
C1017      C1022   1.399       .  A
C1017      F1024   1.358       .  S
C1018      C1019   1.410       .  A
C1019      C1020   1.398       .  A
C1019      F1026   1.358       .  S
C1020      C1021   1.405       .  A
C1020      F1025   1.358       .  S
C1021      C1022   1.402       .  A
C1022      F1023   1.358       .  S
C1027      C1028   1.408       .  A
C1027      C1032   1.400       .  A
C1027      F1034   1.358       .  S
C1028      C1029   1.407       .  A
C1029      C1030   1.398       .  A
C1029      F1036   1.357       .  S
C1030      C1031   1.406       .  A
C1030      F1035   1.358       .  S
C1031      C1032   1.406       .  A
C1032      F1033   1.358       .  S
C1037      C1038   1.400       .  A
C1037      C1042   1.401       .  A
C1037      F1044   1.358       .  S
C1038      C1039   1.399       .  A
C1039      C1040   1.396       .  A
C1039      F1046   1.358       .  S
C1040      C1041   1.415       .  A
C1040      F1045   1.357       .  S
C1041      C1042   1.416       .  A
C1042      F1043   1.358       .  S
C1047      C1048   1.411       .  A
C1047      C1052   1.395       .  A
C1047      F1054   1.357       .  S
C1048      C1049   1.412       .  A
C1049      C1050   1.402       .  A
C1049      F1056   1.358       .  S
C1050      C1051   1.403       .  A
C1050      F1055   1.358       .  S
C1051      C1052   1.402       .  A
C1052      F1053   1.358       .  S
C1057      C1058   1.405       .  A
C1057      C1062   1.400       .  A
C1057      F1064   1.358       .  S
C1058      C1059   1.405       .  A
C1059      C1060   1.397       .  A
C1059      F1066   1.357       .  S
C1060      C1061   1.409       .  A
C1060      F1065   1.358       .  S
C1061      C1062   1.410       .  A
C1062      F1063   1.358       .  S
C1067      C1068   1.408       .  A
C1067      C1072   1.400       .  A
C1067      F1074   1.358       .  S
C1068      C1069   1.408       .  A
C1069      C1070   1.398       .  A
C1069      F1076   1.358       .  S
C1070      C1071   1.406       .  A
C1070      F1075   1.358       .  S
C1071      C1072   1.406       .  A
C1072      F1073   1.358       .  S
C1077      C1078   1.407       .  A
C1077      C1082   1.399       .  A
C1077      F1084   1.358       .  S
C1078      C1079   1.407       .  A
C1079      C1080   1.398       .  A
C1079      F1086   1.358       .  S
C1080      C1081   1.407       .  A
C1080      F1085   1.358       .  S
C1081      C1082   1.408       .  A
C1082      F1083   1.358       .  S
C1087      C1088   1.408       .  A
C1087      C1092   1.399       .  A
C1087      F1094   1.358       .  S
C1088      C1089   1.410       .  A
C1089      C1090   1.399       .  A
C1089      F1096   1.358   1_565  S
C1090      C1091   1.404       .  A
C1090      F1095   1.358       .  S
C1091      C1092   1.406       .  A
C1092      F1093   1.358       .  S
C1097      C1098   1.408       .  A
C1097      C1102   1.402       .  A
C1097      F1104   1.358       .  S
C1098      C1099   1.407       .  A
C1099      C1100   1.395       .  A
C1099      F1106   1.358       .  S
C1100      C1101   1.407       .  A
C1100      F1105   1.358       .  S
C1101      C1102   1.408       .  A
C1102      F1103   1.358       .  S
C1107      C1108   1.406       .  A
C1107      C1112   1.399       .  A
C1107      F1114   1.358       .  S
C1108      C1109   1.404       .  A
C1109      C1110   1.398       .  A
C1109      F1116   1.358       .  S
C1110      C1111   1.410       .  A
C1110      F1115   1.358   1_545  S
C1111      C1112   1.409       .  A
C1112      F1113   1.358       .  S
C1117      C1118   1.406       .  A
C1117      C1122   1.400       .  A
C1117      F1124   1.358       .  S
C1118      C1119   1.406       .  A
C1119      C1120   1.398       .  A
C1119      F1126   1.358       .  S
C1120      C1121   1.408       .  A
C1120      F1125   1.358       .  S
C1121      C1122   1.409       .  A
C1122      F1123   1.358       .  S
C1127      C1128   1.406       .  A
C1127      C1132   1.397       .  A
C1127      F1134   1.358       .  S
C1128      C1129   1.407       .  A
C1129      C1130   1.400       .  A
C1129      F1136   1.358       .  S
C1130      C1131   1.408       .  A
C1130      F1135   1.358       .  S
C1131      C1132   1.408       .  A
C1132      F1133   1.358       .  S
C1137      C1138   1.412       .  A
C1137      C1142   1.402       .  A
C1137      F1144   1.357       .  S
C1138      C1139   1.414       .  A
C1139      C1140   1.394       .  A
C1139      F1146   1.358       .  S
C1140      C1141   1.400       .  A
C1140      F1145   1.359       .  S
C1141      C1142   1.404       .  A
C1142      F1143   1.358       .  S
C1147      C1148   1.408       .  A
C1147      C1152   1.399       .  A
C1147      F1154   1.358       .  S
C1148      C1149   1.407       .  A
C1149      C1150   1.398       .  A
C1149      F1156   1.358       .  S
C1150      C1151   1.405       .  A
C1150      F1155   1.357       .  S
C1151      C1152   1.406       .  A
C1152      F1153   1.358       .  S
C1157      C1158   1.407       .  A
C1157      C1162   1.399       .  A
C1157      F1164   1.358       .  S
C1158      C1159   1.408       .  A
C1159      C1160   1.399       .  A
C1159      F1166   1.358   1_455  S
C1160      C1161   1.406       .  A
C1160      F1165   1.358       .  S
C1161      C1162   1.407       .  A
C1162      F1163   1.358       .  S
C1167      C1168   1.409       .  A
C1167      C1172   1.400       .  A
C1167      F1174   1.358       .  S
C1168      C1169   1.409       .  A
C1169      C1170   1.397       .  A
C1169      F1176   1.357       .  S
C1170      C1171   1.404       .  A
C1170      F1175   1.358       .  S
C1171      C1172   1.406       .  A
C1172      F1173   1.358       .  S
C1177      C1178   1.400       .  A
C1177      C1182   1.396       .  A
C1177      F1184   1.358       .  S
C1178      C1179   1.401       .  A
C1179      C1180   1.402       .  A
C1179      F1186   1.358       .  S
C1180      C1181   1.414       .  A
C1180      F1185   1.358       .  S
C1181      C1182   1.414       .  A
C1182      F1183   1.358       .  S
C1187      C1188   1.405       .  A
C1187      C1192   1.396       .  A
C1187      F1194   1.358       .  S
C1188      C1189   1.402       .  A
C1189      C1190   1.400       .  A
C1189      F1196   1.358       .  S
C1190      C1191   1.412       .  A
C1190      F1195   1.358   1_655  S
C1191      C1192   1.407       .  A
C1192      F1193   1.358       .  S
C1197      C1198   1.410   1_545  A
C1197      C1202   1.401       .  A
C1197      F1204   1.358       .  S
C1198      C1199   1.408       .  A
C1199      C1200   1.394   1_565  A
C1199      F1206   1.358       .  S
C1200      C1201   1.405       .  A
C1200      F1205   1.358       .  S
C1201      C1202   1.405       .  A
C1202      F1203   1.358       .  S
C1207      C1208   1.400       .  A
C1207      C1212   1.400       .  A
C1207      F1214   1.358       .  S
C1208      C1209   1.399       .  A
C1209      C1210   1.396   1_655  A
C1209      F1216   1.358       .  S
C1210      C1211   1.415       .  A
C1210      F1215   1.358       .  S
C1211      C1212   1.415   1_455  A
C1212      F1213   1.358       .  S
C1217      C1218   1.402       .  A
C1217      C1222   1.395       .  A
C1217      F1224   1.358       .  S
C1218      C1219   1.404       .  A
C1219      C1220   1.401       .  A
C1219      F1226   1.358       .  S
C1220      C1221   1.411       .  A
C1220      F1225   1.358       .  S
C1221      C1222   1.410       .  A
C1222      F1223   1.357       .  S
C1227      C1228   1.409       .  A
C1227      C1232   1.399       .  A
C1227      F1234   1.358       .  S
C1228      C1229   1.409       .  A
C1229      C1230   1.398       .  A
C1229      F1236   1.358       .  S
C1230      C1231   1.405       .  A
C1230      F1235   1.358       .  S
C1231      C1232   1.405       .  A
C1232      F1233   1.358       .  S
C1237      C1238   1.409       .  A
C1237      C1242   1.399       .  A
C1237      F1244   1.357       .  S
C1238      C1239   1.408       .  A
C1239      C1240   1.398       .  A
C1239      F1246   1.358       .  S
C1240      C1241   1.407       .  A
C1240      F1245   1.358       .  S
C1241      C1242   1.406       .  A
C1242      F1243   1.358       .  S
C1247      C1248   1.411       .  A
C1247      C1252   1.401       .  A
C1247      F1254   1.358       .  S
C1248      C1249   1.411       .  A
C1249      C1250   1.396       .  A
C1249      F1256   1.357       .  S
C1250      C1251   1.402       .  A
C1250      F1255   1.358       .  S
C1251      C1252   1.403       .  A
C1252      F1253   1.358       .  S
C1257      C1258   1.409       .  A
C1257      C1262   1.398       .  A
C1257      F1264   1.358       .  S
C1258      C1259   1.408       .  A
C1259      C1260   1.399       .  A
C1259      F1266   1.358       .  S
C1260      C1261   1.406       .  A
C1260      F1265   1.358       .  S
C1261      C1262   1.405       .  A
C1262      F1263   1.358       .  S
C1267      C1268   1.408   1_455  A
C1267      C1272   1.398       .  A
C1267      F1274   1.358   1_455  S
C1268      C1269   1.409   1_655  A
C1269      C1270   1.400       .  A
C1269      F1276   1.358       .  S
C1270      C1271   1.406       .  A
C1270      F1275   1.358       .  S
C1271      C1272   1.406       .  A
C1272      F1273   1.358       .  S
C1277      C1278   1.407       .  A
C1277      C1282   1.399       .  A
C1277      F1284   1.358       .  S
C1278      C1279   1.407       .  A
C1279      C1280   1.398       .  A
C1279      F1286   1.358       .  S
C1280      C1281   1.407   1_565  A
C1280      F1285   1.358   1_565  S
C1281      C1282   1.407   1_545  A
C1282      F1283   1.358   1_565  S
C1287      C1288   1.411       .  A
C1287      C1292   1.397       .  A
C1287      F1294   1.358       .  S
C1288      C1289   1.409       .  A
C1289      C1290   1.399       .  A
C1289      F1296   1.358       .  S
C1290      C1291   1.405       .  A
C1290      F1295   1.358       .  S
C1291      C1292   1.403       .  A
C1292      F1293   1.358       .  S
