geometry optimzed in LAMMPS
_audit_creation_date              2020-11-30 
_audit_creation_method            'lammps2cif' 
_symmetry_space_group_name_H-M    'P1' 
_symmetry_Int_Tables_number       1 
_symmetry_cell_setting            triclinic 
loop_ 
_symmetry_equiv_pos_as_xyz 
  x,y,z 
_cell_length_a                    54.43883605 
_cell_length_b                    54.15503269145386 
_cell_length_c                    54.6207746375765 
_cell_angle_alpha                 89.72451290647992 
_cell_angle_beta                  90.48746573208224 
_cell_angle_gamma                 89.79165984436746 
loop_ 
_atom_site_label 
_atom_site_type_symbol 
_atom_site_fract_x 
_atom_site_fract_y 
_atom_site_fract_z 
_atom_site_charge 
N1          N  0.27905985  0.24654857  0.20070088    -0.27300
N2          N  0.28534896  0.22683692  0.21370575    -0.35200
C3          C  0.30144132  0.21324010  0.20106417     0.01000
C4          C  0.30542349  0.22471421  0.17886282     0.07100
C5          C  0.29099778  0.24586509  0.17918648    -0.06000
H6          H  0.30839354  0.19543318  0.20698762     0.07700
H7          H  0.28833448  0.25901451  0.16441938     0.08900
Cu8        Cu  0.26886725  0.21610495  0.24580273     0.44200
Cu9        Cu  0.25182253  0.27105878  0.21178621     0.42000
Cu10       Cu  0.21703754  0.25015400  0.26562323     0.43900
N11         N  0.24683415  0.20422227  0.27391615    -0.34700
N12         N  0.22753059  0.21676355  0.28152243    -0.28900
C13         C  0.21544188  0.20298479  0.29806190    -0.05000
C14         C  0.22773361  0.18066335  0.30074907     0.07200
C15         C  0.24757227  0.18215047  0.28521615     0.01000
H16         H  0.19821168  0.20820891  0.30632876     0.08600
H17         H  0.26079274  0.16776006  0.28133449     0.07700
N18         N  0.20723737  0.27993960  0.24340163    -0.36100
N19         N  0.21985807  0.28783759  0.22430021    -0.28300
C20         C  0.20643642  0.30500099  0.21221363    -0.03500
C21         C  0.18419427  0.30769008  0.22401522     0.05100
C22         C  0.18545925  0.29169281  0.24378632     0.03200
H23         H  0.21153030  0.31312386  0.19485755     0.08300
H24         H  0.17087493  0.28744494  0.25644127     0.07100
N25         N  0.03548904  0.33929800  0.18313060    -0.27300
N26         N  0.04688610  0.32656047  0.20056018    -0.35200
C27         C  0.03057439  0.31167518  0.21160865     0.01000
C28         C  0.00783220  0.31498966  0.20045021     0.07100
C29         C  0.01169676  0.33266411  0.18246013    -0.06000
H30         H  0.03526921  0.29829192  0.22567131     0.07700
H31         H  0.99839379  0.33961174  0.16928412     0.08900
Cu32       Cu  0.08468086  0.32765243  0.20634559     0.44200
Cu33       Cu  0.05330962  0.36353678  0.15970649     0.42000
Cu34       Cu  0.12039941  0.36292637  0.16351135     0.43900
N35         N  0.12286058  0.32874961  0.20688109    -0.34700
N36         N  0.13607176  0.34110831  0.19077799    -0.28900
C37         C  0.16006326  0.33635537  0.19490192    -0.05000
C38         C  0.16199176  0.32032473  0.21465266     0.07200
C39         C  0.13806375  0.31597691  0.22180045     0.01000
H40         H  0.17490475  0.34346074  0.18389445     0.08600
H41         H  0.13204181  0.30347444  0.23602020     0.07700
N42         N  0.10015046  0.38467087  0.13933770    -0.36100
N43         N  0.07589429  0.38526372  0.13807090    -0.28300
C44         C  0.06895581  0.40185828  0.12091314    -0.03500
C45         C  0.08987469  0.41216792  0.11080394     0.05100
C46         C  0.10926323  0.40076197  0.12303750     0.03200
H47         H  0.05004920  0.40595653  0.11615235     0.08300
H48         H  0.12866653  0.40415586  0.12072323     0.07100
N49         N  0.19532802  0.03211030  0.33894599    -0.27300
N50         N  0.21339995  0.04341673  0.32753650    -0.35200
C51         C  0.22579245  0.02675710  0.31423518     0.01000
C52         C  0.21492459  0.00378023  0.31733253     0.07100
C53         C  0.19567618  0.00802556  0.33325802    -0.06000
H54         H  0.24069406  0.03144799  0.30213443     0.07700
H55         H  0.18220148  0.99490969  0.33960168     0.08900
Cu56       Cu  0.21802385  0.08147164  0.32785669     0.44200
Cu57       Cu  0.16957636  0.05016164  0.35980012     0.42000
Cu58       Cu  0.16869761  0.11677950  0.35532099     0.43900
N59         N  0.21503941  0.11968487  0.32575536    -0.34700
N60         N  0.19660797  0.13244564  0.33504766    -0.28900
C61         C  0.19877950  0.15628189  0.32839815    -0.05000
C62         C  0.21956912  0.15862770  0.31423266     0.07200
C63         C  0.22948541  0.13510024  0.31302170     0.01000
H64         H  0.18571421  0.17063494  0.33286352     0.08600
H65         H  0.24533196  0.12934656  0.30265101     0.07700
N66         N  0.14547284  0.09665747  0.37754329    -0.36100
N67         N  0.14620601  0.07234580  0.37951461    -0.28300
C68         C  0.13037655  0.06508068  0.39681213    -0.03500
C69         C  0.11901986  0.08584012  0.40618130     0.05100
C70         C  0.12900115  0.10553925  0.39344851     0.03200
H71         H  0.12762404  0.04608002  0.40229264     0.08300
H72         H  0.12537174  0.12497462  0.39620006     0.07100
N73         N  0.33746095  0.17182077  0.03737410    -0.27300
N74         N  0.32968525  0.19279256  0.04697815    -0.35200
C75         C  0.31540840  0.20473246  0.03062086     0.01000
C76         C  0.31378796  0.19064276  0.00966016     0.07100
C77         C  0.32807303  0.16987585  0.01456815    -0.06000
H78         H  0.30538005  0.22152269  0.03451368     0.07700
H79         H  0.33059570  0.15400835  0.00289061     0.08900
Cu80       Cu  0.33358104  0.20277981  0.08319836     0.44200
Cu81       Cu  0.35772562  0.14531570  0.05677919     0.42000
Cu82       Cu  0.35548928  0.15552221  0.12242836     0.43900
N83         N  0.33091991  0.20510590  0.12075976    -0.34700
N84         N  0.33867970  0.18713240  0.13531211    -0.28900
C85         C  0.33188369  0.19206781  0.15834622    -0.05000
C86         C  0.31909308  0.21420038  0.15825802     0.07200
C87         C  0.31888040  0.22203091  0.13411182     0.01000
H88         H  0.33492179  0.17978256  0.17375846     0.08600
H89         H  0.30936266  0.23793908  0.12656313     0.07700
N90         N  0.37265739  0.12564247  0.10640217    -0.36100
N91         N  0.37419934  0.12188726  0.08257290    -0.28300
C92         C  0.38782804  0.10143385  0.07879796    -0.03500
C93         C  0.39506853  0.09181790  0.10140244     0.05100
C94         C  0.38501313  0.10777105  0.11836905     0.03200
H95         H  0.39227933  0.09429334  0.06091018     0.08300
H96         H  0.38720254  0.10710993  0.13805533     0.07100
N97         N  0.82811731  0.15138518  0.29483128    -0.27300
N98         N  0.81714945  0.13213682  0.28484482    -0.35200
C99         C  0.80084475  0.12280245  0.30066004     0.01000
C100        C  0.80128288  0.13697011  0.32165553     0.07100
C101        C  0.81883831  0.15495870  0.31731705    -0.06000
H102        H  0.78844712  0.10780878  0.29647520     0.07700
H103        H  0.82398164  0.16997478  0.32927328     0.08900
Cu104      Cu  0.82139237  0.12190755  0.24884302     0.44200
Cu105      Cu  0.85360100  0.17287047  0.27623057     0.42000
Cu106      Cu  0.85837782  0.16107504  0.21063693     0.43900
N107        N  0.82241677  0.11901958  0.21126801    -0.34700
N108        N  0.83542135  0.13369466  0.19701194    -0.28900
C109        C  0.82987199  0.12872017  0.17348559    -0.05000
C110        C  0.81261541  0.10999611  0.17307531     0.07200
C111        C  0.80837254  0.10428060  0.19732321     0.01000
H112        H  0.83717300  0.13860903  0.15792181     0.08600
H113        H  0.79507704  0.09133522  0.20439515     0.07700
N114        N  0.87862222  0.18772212  0.22915762    -0.36100
N115        N  0.87710754  0.19186239  0.25294326    -0.28300
C116        C  0.89249021  0.21033058  0.25892244    -0.03500
C117        C  0.90414937  0.21841043  0.23787451     0.05100
C118        C  0.89487575  0.20353260  0.21939726     0.03200
H119        H  0.89467072  0.21757208  0.27722880     0.08300
H120        H  0.89969553  0.20395357  0.20023093     0.07100
N121        N  0.77122621  0.08088182  0.12957018    -0.27300
N122        N  0.78061605  0.09847557  0.11572266    -0.35200
C123        C  0.79781593  0.11067743  0.12861777     0.01000
C124        C  0.79911955  0.10037204  0.15178749     0.07100
C125        C  0.78207623  0.08148140  0.15174563    -0.06000
H126        H  0.80731973  0.12693594  0.12217125     0.07700
H127        H  0.77697097  0.06990386  0.16706109     0.08900
Cu128      Cu  0.76617352  0.10801641  0.08193855     0.44200
Cu129      Cu  0.74187803  0.05928034  0.11863318     0.42000
Cu130      Cu  0.71117905  0.07595509  0.06155789     0.43900
N131        N  0.74458960  0.11926227  0.05270718    -0.34700
N132        N  0.72462665  0.10765843  0.04510271    -0.28900
C133        C  0.71298221  0.12184695  0.02836246    -0.05000
C134        C  0.72612347  0.14349568  0.02561136     0.07200
C135        C  0.74609323  0.14115115  0.04119145     0.01000
H136        H  0.69517213  0.11767688  0.02050952     0.08600
H137        H  0.75963808  0.15511054  0.04537422     0.07700
N138        N  0.69935771  0.04801328  0.08464212    -0.36100
N139        N  0.71076452  0.04191931  0.10528413    -0.28300
C140        C  0.69772513  0.02449826  0.11687982    -0.03500
C141        C  0.67701691  0.01950386  0.10299651     0.05100
C142        C  0.67860941  0.03470376  0.08265599     0.03200
H143        H  0.70238808  0.01698306  0.13471400     0.08300
H144        H  0.66522890  0.03670770  0.06801730     0.07100
N145        N  0.68308625  0.29242657  0.00640026    -0.27300
N146        N  0.70222150  0.28070689  0.01602485    -0.35200
C147        C  0.71305631  0.29535075  0.03268492     0.01000
C148        C  0.70012603  0.31745158  0.03382517     0.07100
C149        C  0.68125008  0.31484936  0.01675767    -0.06000
H150        H  0.72852244  0.28968156  0.04394145     0.07700
H151        H  0.66675688  0.32794013  0.01255807     0.08900
Cu152      Cu  0.71095495  0.24407628  0.00911337     0.44200
Cu153      Cu  0.65890526  0.27658185  0.98135990     0.42000
Cu154      Cu  0.66387330  0.21011574  0.97816598     0.43900
N155        N  0.71123731  0.20591363  0.00606257    -0.34700
N156        N  0.69332488  0.19347546  0.99537385    -0.28900
C157        C  0.69669076  0.16921174  0.99938304    -0.05000
C158        C  0.71776816  0.16621417  0.01332793     0.07200
C159        C  0.72662859  0.18983338  0.01712378     0.01000
H160        H  0.68395195  0.15499576  0.99376124     0.08600
H161        H  0.74199226  0.19508128  0.02863507     0.07700
N162        N  0.63793422  0.23036898  0.95921607    -0.36100
N163        N  0.63655889  0.25473479  0.95933618    -0.28300
C164        C  0.61919511  0.26195379  0.94310121    -0.03500
C165        C  0.60906905  0.24103234  0.93258464     0.05100
C166        C  0.62139318  0.22139626  0.94328632     0.03200
H167        H  0.61452147  0.28098211  0.93906243     0.08300
H168        H  0.61939317  0.20203193  0.93894333     0.07100
N169        N  0.53267943  0.97517579  0.13822838    -0.27300
N170        N  0.54373302  0.98367070  0.11841765    -0.35200
C171        C  0.52728269  0.99559066  0.10420616     0.01000
C172        C  0.50465789  0.99496006  0.11549098     0.07100
C173        C  0.50878285  0.98177411  0.13705953    -0.06000
H174        H  0.53200034  0.00570699  0.08779097     0.07700
H175        H  0.49567971  0.97818595  0.15140781     0.08900
Cu176      Cu  0.58120518  0.98394826  0.11258936     0.44200
Cu177      Cu  0.55100682  0.95743217  0.16738027     0.42000
Cu178      Cu  0.61691700  0.96253410  0.16229853     0.43900
N179        N  0.61877294  0.98910101  0.11431715    -0.34700
N180        N  0.63193435  0.98117265  0.13318085    -0.28900
C181        C  0.65495611  0.98967293  0.13129216    -0.05000
C182        C  0.65635264  0.00378955  0.11022224     0.07200
C183        C  0.63309894  0.00297249  0.09978639     0.01000
H184        H  0.66916162  0.98697762  0.14502363     0.08600
H185        H  0.62663997  0.01305085  0.08382574     0.07700
N186        N  0.59974745  0.94544866  0.19115374    -0.36100
N187        N  0.57574445  0.94294423  0.19341837    -0.28300
C188        C  0.57134821  0.93017430  0.21422099    -0.03500
C189        C  0.59374721  0.92461159  0.22554674     0.05100
C190        C  0.61120103  0.93466708  0.21021828     0.03200
H191        H  0.55322622  0.92529591  0.22055331     0.08300
H192        H  0.63095348  0.93373960  0.21225853     0.07100
N193        N  0.13827580  0.29538847  0.84369522    -0.27300
N194        N  0.11882944  0.28478054  0.83364534    -0.35200
C195        C  0.10774386  0.30089515  0.81832216     0.01000
C196        C  0.12084027  0.32279243  0.81843032     0.07100
C197        C  0.14000722  0.31858687  0.83493072    -0.06000
H198        H  0.09234404  0.29625247  0.80660628     0.07700
H199        H  0.15488928  0.33098455  0.83939872     0.08900
Cu200      Cu  0.11024908  0.24769884  0.83703965     0.44200
Cu201      Cu  0.16370751  0.27703333  0.86623214     0.42000
Cu202      Cu  0.15458654  0.21087792  0.86844863     0.43900
N203        N  0.10937899  0.20949168  0.83700976    -0.40300
N204        N  0.12620340  0.19592015  0.84833603    -0.28900
C205        C  0.12305551  0.17211961  0.84233262    -0.05000
C206        C  0.10326549  0.17064892  0.82640230     0.07200
C207        C  0.09492260  0.19466046  0.82350763     0.01000
H208        H  0.13516746  0.15724587  0.84802409     0.08600
H209        H  0.08063097  0.20109626  0.81113589     0.07700
N210        N  0.18263969  0.22875545  0.88652860    -0.36100
N211        N  0.18635598  0.25284122  0.88609646    -0.28300
C212        C  0.20599764  0.25793016  0.90040123    -0.03500
C213        C  0.21501483  0.23589177  0.91023582     0.05100
C214        C  0.19959731  0.21790304  0.90091665     0.03200
H215        H  0.21299594  0.27632177  0.90351075     0.08300
H216        H  0.20007674  0.19829740  0.90469365     0.07100
N217        N  0.04912694  0.07905244  0.71276863    -0.27300
N218        N  0.04154678  0.09965891  0.72321154    -0.35200
C219        C  0.02643490  0.11172165  0.70763391     0.01000
C220        C  0.02474396  0.09821859  0.68626539     0.07100
C221        C  0.03928626  0.07759214  0.69017109    -0.06000
H222        H  0.01885055  0.12988885  0.71090499     0.07700
H223        H  0.04365484  0.06336515  0.67705389     0.08900
Cu224      Cu  0.05603291  0.11315545  0.75566635     0.44200
Cu225      Cu  0.07582587  0.05610004  0.72756098     0.42000
Cu226      Cu  0.11067499  0.08105923  0.77754714     0.43900
N227        N  0.07783936  0.12545785  0.78435605    -0.34700
N228        N  0.09761575  0.11358292  0.79237221    -0.28900
C229        C  0.10887283  0.12729710  0.80950733    -0.05000
C230        C  0.09570180  0.14894825  0.81224137     0.07200
C231        C  0.07611681  0.14718531  0.79606288     0.01000
H232        H  0.12619652  0.12250299  0.81817551     0.08600
H233        H  0.06233485  0.16113905  0.79218567     0.07700
N234        N  0.12153650  0.05026214  0.75812346    -0.36100
N235        N  0.10815612  0.04052108  0.74036892    -0.28300
C236        C  0.12129356  0.02285185  0.72926100    -0.03500
C237        C  0.14421079  0.02169588  0.74029145     0.05100
C238        C  0.14369417  0.03922065  0.75863180     0.03200
H239        H  0.11551254  0.01347763  0.71275568     0.08300
H240        H  0.15890211  0.04496314  0.77011507     0.07100
N241        N  0.28649994  0.00419415  0.68205710    -0.27300
N242        N  0.27711754  0.01461352  0.70172023    -0.35200
C243        C  0.29365350  0.03029110  0.71126540     0.01000
C244        C  0.31441605  0.02983881  0.69681106     0.07100
C245        C  0.30919412  0.01311547  0.67842052    -0.06000
H246        H  0.29042103  0.04179157  0.72706429     0.07700
H247        H  0.32093679  0.00785528  0.66342882     0.08900
Cu248      Cu  0.24160944  0.00868327  0.71350470     0.44200
Cu249      Cu  0.26774431  0.97897549  0.66066852     0.42000
Cu250      Cu  0.20325740  0.97116814  0.67425586     0.43900
N251        N  0.20442219  0.00357443  0.71890995    -0.34700
N252        N  0.19028907  0.99031208  0.70425949    -0.28900
C253        C  0.16672744  0.99336744  0.71077420    -0.05000
C254        C  0.16603111  0.00935505  0.73042947     0.07200
C255        C  0.19025874  0.01534052  0.73520150     0.01000
H256        H  0.15119985  0.98576502  0.70092478     0.08600
H257        H  0.19696527  0.02877388  0.74821669     0.07700
N258        N  0.22103871  0.95319859  0.64604650    -0.36100
N259        N  0.24472379  0.95553870  0.64151495    -0.28300
C260        C  0.25076697  0.94057478  0.62293136    -0.03500
C261        C  0.22981345  0.92834657  0.61522287     0.05100
C262        C  0.21130889  0.93687246  0.63029763     0.03200
H263        H  0.26907293  0.93884523  0.61556956     0.08300
H264        H  0.19229522  0.93113934  0.63034251     0.07100
N265        N  0.99473626  0.13118291  0.53611406    -0.27300
N266        N  0.00816340  0.11460065  0.54806565    -0.35200
C267        C  0.02422054  0.10441125  0.53247551     0.01000
C268        C  0.02088961  0.11522426  0.50962727     0.07100
C269        C  0.00189333  0.13197951  0.51267373    -0.06000
H270        H  0.03839453  0.09138776  0.53787583     0.07700
H271        H  0.99455900  0.14481295  0.49923890     0.08900
Cu272      Cu  0.00716474  0.10917699  0.58562861     0.44200
Cu273      Cu  0.97038879  0.15548923  0.55222530     0.42000
Cu274      Cu  0.97581754  0.15750791  0.61757794     0.43900
N275        N  0.00605552  0.11130507  0.62346474    -0.34700
N276        N  0.99491205  0.12945883  0.63508593    -0.28900
C277        C  0.99903755  0.12701343  0.65925429    -0.05000
C278        C  0.01347491  0.10629834  0.66304013     0.07200
C279        C  0.01754408  0.09670903  0.63997786     0.01000
H280        H  0.99266091  0.13985409  0.67293754     0.08600
H281        H  0.02897567  0.08103884  0.63541572     0.07700
N282        N  0.95556130  0.18267908  0.59725642    -0.36100
N283        N  0.95265771  0.18163217  0.57326634    -0.28300
C284        C  0.93720502  0.19977843  0.56604055    -0.03500
C285        C  0.93019515  0.21296291  0.58657031     0.05100
C286        C  0.94225401  0.20150423  0.60597335     0.03200
H287        H  0.93141720  0.20295565  0.54729248     0.08300
H288        H  0.94073141  0.20578986  0.62521949     0.07100
N289        N  0.33973233  0.62936351  0.78237932    -0.27300
N290        N  0.32862185  0.61068002  0.77152459    -0.35200
C291        C  0.31070703  0.60229012  0.78619920     0.01000
C292        C  0.31041077  0.61662785  0.80716387     0.07100
C293        C  0.32918130  0.63348228  0.80409072    -0.06000
H294        H  0.29776385  0.58803125  0.78118334     0.07700
H295        H  0.33420374  0.64838486  0.81623414     0.08900
Cu296      Cu  0.33506522  0.60114340  0.73542897     0.44200
Cu297      Cu  0.36596284  0.65120646  0.76604927     0.42000
Cu298      Cu  0.36874148  0.64685128  0.70033368     0.43900
N299        N  0.33649105  0.60179207  0.69753877    -0.34700
N300        N  0.34762734  0.61913666  0.68466396    -0.28900
C301        C  0.34097908  0.61694836  0.66097415    -0.05000
C302        C  0.32497304  0.59724120  0.65891176     0.07200
C303        C  0.32273274  0.58797724  0.68239921     0.01000
H304        H  0.34620798  0.62968312  0.64662944     0.08600
H305        H  0.31028309  0.57370227  0.68841727     0.07700
N306        N  0.38837769  0.67246906  0.72070060    -0.36100
N307        N  0.38777491  0.67371305  0.74483860    -0.28300
C308        C  0.40266263  0.69194618  0.75243432    -0.03500
C309        C  0.41306734  0.70284812  0.73203537     0.05100
C310        C  0.40356966  0.68997831  0.71225378     0.03200
H311        H  0.40538793  0.69705212  0.77138743     0.08300
H312        H  0.40766008  0.69281585  0.69310366     0.07100
N313        N  0.22273339  0.61115104  0.54196772    -0.27300
N314        N  0.24227549  0.62352946  0.54942052    -0.35200
C315        C  0.24144251  0.64643172  0.53977617     0.01000
C316        C  0.22033674  0.64850281  0.52563048     0.07100
C317        C  0.20900876  0.62576039  0.52731959    -0.06000
H318        H  0.25445593  0.66089493  0.54394659     0.07700
H319        H  0.19126412  0.62070825  0.51986063     0.08900
Cu320      Cu  0.26701219  0.61000452  0.57525671     0.44200
Cu321      Cu  0.21283913  0.57696231  0.55566206     0.42000
Cu322      Cu  0.24877142  0.55335089  0.60623801     0.43900
N323        N  0.28602403  0.59468349  0.60467210    -0.34700
N324        N  0.27922112  0.57424345  0.61606324    -0.28900
C325        C  0.29320279  0.57122537  0.63626510    -0.05000
C326        C  0.30955251  0.59067326  0.63768379     0.07200
C327        C  0.30460176  0.60511168  0.61726632     0.01000
H328        H  0.29053905  0.55681314  0.64975504     0.08600
H329        H  0.31251999  0.62288031  0.61292613     0.07700
N330        N  0.21534073  0.53833631  0.59542646    -0.36100
N331        N  0.20230944  0.54705591  0.57675421    -0.28300
C332        C  0.18047430  0.53558228  0.57602013    -0.03500
C333        C  0.17966448  0.51881037  0.59515448     0.05100
C334        C  0.20212514  0.52094774  0.60703898     0.03200
H335        H  0.16576998  0.54015845  0.56332724     0.08300
H336        H  0.20784247  0.51170267  0.62374995     0.07100
N337        N  0.17470450  0.79621573  0.49628415    -0.27300
N338        N  0.19469804  0.78600675  0.50589419    -0.35200
C339        C  0.20657443  0.80298797  0.51938734     0.01000
C340        C  0.19329728  0.82488071  0.51845434     0.07100
C341        C  0.17331044  0.81984661  0.50345593    -0.06000
H342        H  0.22258414  0.79904442  0.53062268     0.07700
H343        H  0.15807187  0.83198868  0.49906263     0.08900
Cu344      Cu  0.20268852  0.74852412  0.50439349     0.44200
Cu345      Cu  0.14778695  0.77744799  0.47698572     0.42000
Cu346      Cu  0.15241979  0.71194115  0.48125121     0.43900
N347        N  0.20227672  0.71020318  0.50553641    -0.34700
N348        N  0.18353635  0.69704092  0.49740292    -0.28900
C349        C  0.18761710  0.67308589  0.50243410    -0.05000
C350        C  0.20997541  0.67100252  0.51440930     0.07200
C351        C  0.21884462  0.69487816  0.51604463     0.01000
H352        H  0.17477743  0.65841591  0.49844960     0.08600
H353        H  0.23551591  0.70080766  0.52515282     0.07700
N354        N  0.12408017  0.72978980  0.46307808    -0.36100
N355        N  0.12255125  0.75401957  0.46079383    -0.28300
C356        C  0.10366323  0.75966696  0.44569960    -0.03500
C357        C  0.09275508  0.73782805  0.43820251     0.05100
C358        C  0.10619479  0.71931478  0.44971383     0.03200
H359        H  0.09883435  0.77822283  0.43998863     0.08300
H360        H  0.10421744  0.69960650  0.44730283     0.07100
N361        N  0.03354285  0.49021716  0.63564578    -0.27300
N362        N  0.04459692  0.49958544  0.61628779    -0.35200
C363        C  0.02939463  0.51570810  0.60503730     0.01000
C364        C  0.00761247  0.51685291  0.61795339     0.07100
C365        C  0.01093949  0.50024137  0.63722055    -0.06000
H366        H  0.03466401  0.52714926  0.58969074     0.07700
H367        H  0.99841712  0.49657182  0.65204782     0.08900
Cu368      Cu  0.08140663  0.49426504  0.60869419     0.44200
Cu369      Cu  0.05117400  0.46693262  0.66081635     0.42000
Cu370      Cu  0.11764060  0.46208911  0.65423968     0.43900
N371        N  0.11942665  0.49388574  0.60899193    -0.34700
N372        N  0.13282143  0.48257528  0.62597374    -0.28900
C373        C  0.15655147  0.48873238  0.62299836    -0.05000
C374        C  0.15808844  0.50471818  0.60322216     0.07200
C375        C  0.13422377  0.50746816  0.59473476     0.01000
H376        H  0.17135662  0.48303029  0.63511760     0.08600
H377        H  0.12783682  0.51971382  0.58030701     0.07700
N378        N  0.09796716  0.44456816  0.68166519    -0.36100
N379        N  0.07383059  0.44596988  0.68393280    -0.28300
C380        C  0.06700181  0.43177968  0.70299862    -0.03500
C381        C  0.08784356  0.42104089  0.71333678     0.05100
C382        C  0.10711269  0.42967188  0.69931143     0.03200
H383        H  0.04821230  0.42941074  0.70882129     0.08300
H384        H  0.12634127  0.42488745  0.70126644     0.07100
N385        N  0.80180571  0.33157069  0.64956481    -0.27300
N386        N  0.79085396  0.32373245  0.62940537    -0.35200
C387        C  0.80696776  0.31046515  0.61632148     0.01000
C388        C  0.82925979  0.30983732  0.62885527     0.07100
C389        C  0.82515713  0.32351512  0.64987824    -0.06000
H390        H  0.80233746  0.30117496  0.59943641     0.07700
H391        H  0.83788771  0.32696933  0.66475038     0.08900
Cu392      Cu  0.75387005  0.32913025  0.62200228     0.44200
Cu393      Cu  0.78437512  0.35167288  0.67653136     0.42000
Cu394      Cu  0.71885089  0.35726002  0.67130878     0.43900
N395        N  0.71592346  0.33157290  0.62220741    -0.34700
N396        N  0.70326448  0.34116274  0.64043537    -0.28900
C397        C  0.67923470  0.33719075  0.63636684    -0.05000
C398        C  0.67663491  0.32449667  0.61457980     0.07200
C399        C  0.70025321  0.32134316  0.60601953     0.01000
H400        H  0.66482924  0.34216366  0.64896170     0.08600
H401        H  0.70578017  0.31098205  0.59008952     0.07700
N402        N  0.73911209  0.37316026  0.69946667    -0.36100
N403        N  0.76329481  0.37149375  0.70098196    -0.28300
C404        C  0.77127718  0.38508881  0.71994953    -0.03500
C405        C  0.75112471  0.39572195  0.73111457     0.05100
C406        C  0.73100846  0.38768298  0.71764171     0.03200
H407        H  0.79040098  0.38730471  0.72498688     0.08300
H408        H  0.71199229  0.39287489  0.72016747     0.07100
N409        N  0.57501216  0.22515130  0.54946663    -0.27300
N410        N  0.59571295  0.23512570  0.54175179    -0.35200
C411        C  0.60528681  0.22048198  0.52440254     0.01000
C412        C  0.59011920  0.20017978  0.52155478     0.07100
C413        C  0.57110092  0.20382058  0.53764758    -0.06000
H414        H  0.62316337  0.22313005  0.51631443     0.07700
H415        H  0.55654310  0.19099246  0.54191609     0.08900
Cu416      Cu  0.61309490  0.26449618  0.55931804     0.44200
Cu417      Cu  0.55566098  0.23703437  0.57936287     0.42000
Cu418      Cu  0.58505955  0.28089478  0.61743098     0.43900
N419        N  0.62824543  0.28952326  0.58410958    -0.34700
N420        N  0.61741518  0.29573923  0.60478673    -0.28900
C421        C  0.63244720  0.31027197  0.61785432    -0.05000
C422        C  0.65398099  0.31319645  0.60506463     0.07200
C423        C  0.65073412  0.29986130  0.58367783     0.01000
H424        H  0.62863295  0.31667071  0.63616834     0.08600
H425        H  0.66417638  0.29677528  0.56953229     0.07700
N426        N  0.55569418  0.25999233  0.62890478    -0.36100
N427        N  0.54437149  0.24416587  0.61443078    -0.28300
C428        C  0.52799502  0.23128805  0.62750206    -0.03500
C429        C  0.52924700  0.23930133  0.65143242     0.05100
C430        C  0.54694239  0.25756259  0.65171306     0.03200
H431        H  0.51732860  0.21603390  0.62046039     0.08300
H432        H  0.55394622  0.26734150  0.66750842     0.07100
N433        N  0.49492589  0.18842277  0.79496801    -0.27300
N434        N  0.50815921  0.20605398  0.78487877    -0.35200
C435        C  0.52215892  0.21668919  0.80211098     0.01000
C436        C  0.51764207  0.20525790  0.82435457     0.07100
C437        C  0.50020214  0.18734205  0.81907499    -0.06000
H438        H  0.53539520  0.23100809  0.79831952     0.07700
H439        H  0.49227876  0.17413152  0.83160982     0.08900
Cu440      Cu  0.50840770  0.21381144  0.74796178     0.44200
Cu441      Cu  0.47170846  0.16610999  0.77460796     0.42000
Cu442      Cu  0.47139188  0.17622896  0.70819310     0.43900
N443        N  0.50814516  0.21739451  0.71043519    -0.34700
N444        N  0.49475393  0.20349854  0.69570020    -0.28900
C445        C  0.49973286  0.20956793  0.67238249    -0.05000
C446        C  0.51703711  0.22820271  0.67258903     0.07200
C447        C  0.52195642  0.23272448  0.69698445     0.01000
H448        H  0.49175509  0.20068209  0.65651702     0.08600
H449        H  0.53513827  0.24561698  0.70445609     0.07700
N450        N  0.45043314  0.14991054  0.72591058    -0.36100
N451        N  0.45059416  0.14629031  0.74985973    -0.28300
C452        C  0.43471021  0.12820875  0.75531517    -0.03500
C453        C  0.42392626  0.11995633  0.73378109     0.05100
C454        C  0.43443268  0.13420864  0.71550885     0.03200
H455        H  0.43124960  0.12178438  0.77372808     0.08300
H456        H  0.43041337  0.13373636  0.69609717     0.07100
N457        N  0.63363514  0.05213834  0.50047578    -0.27300
N458        N  0.61442235  0.06227642  0.51123861    -0.35200
C459        C  0.60486242  0.04577690  0.52700934     0.01000
C460        C  0.61883651  0.02428574  0.52630615     0.07100
C461        C  0.63685769  0.02909654  0.50918644    -0.06000
H462        H  0.58957875  0.04962411  0.53894854     0.07700
H463        H  0.65160426  0.01694504  0.50368245     0.08900
Cu464      Cu  0.60382642  0.09905407  0.50621491     0.44200
Cu465      Cu  0.65594531  0.06995071  0.47539324     0.42000
Cu466      Cu  0.64392570  0.13404887  0.46650023     0.43900
N467        N  0.60188792  0.13731665  0.50176720    -0.34700
N468        N  0.61706027  0.14981603  0.48760881    -0.28900
C469        C  0.61404442  0.17410446  0.49138216    -0.05000
C470        C  0.59603641  0.17719086  0.50868742     0.07200
C471        C  0.58854444  0.15351679  0.51479442     0.01000
H472        H  0.62525915  0.18835530  0.48324758     0.08600
H473        H  0.57591654  0.14840447  0.52912733     0.07700
N474        N  0.67108260  0.11549525  0.44810436    -0.36100
N475        N  0.67556363  0.09170499  0.45112266    -0.28300
C476        C  0.69389154  0.08504276  0.43614139    -0.03500
C477        C  0.70135552  0.10575599  0.42315814     0.05100
C478        C  0.68644515  0.12471596  0.43131558     0.03200
H479        H  0.70123146  0.06650960  0.43489402     0.08300
H480        H  0.68631286  0.14373442  0.42517008     0.07100
N481        N  0.84991547  0.71291622  0.53500280    -0.27300
N482        N  0.83911288  0.72956359  0.54892687    -0.35200
C483        C  0.82361501  0.74324873  0.53526893     0.01000
C484        C  0.82436846  0.73503479  0.51134594     0.07100
C485        C  0.84135907  0.71570960  0.51186917    -0.06000
H486        H  0.81149418  0.75711255  0.54273319     0.07700
H487        H  0.84642316  0.70389704  0.49681255     0.08900
Cu488      Cu  0.84180176  0.73120369  0.58651007     0.44200
Cu489      Cu  0.87351223  0.68555890  0.54936877     0.42000
Cu490      Cu  0.86885749  0.68040167  0.61644939     0.43900
N491        N  0.83951628  0.72618824  0.62378955    -0.34700
N492        N  0.84890185  0.70667094  0.63502836    -0.28900
C493        C  0.84178767  0.70671080  0.65853950    -0.05000
C494        C  0.82718751  0.72733690  0.66213179     0.07200
C495        C  0.82621279  0.73930084  0.63974283     0.01000
H496        H  0.84588410  0.69217428  0.67161991     0.08600
H497        H  0.81528807  0.75535482  0.63492774     0.07700
N498        N  0.89005863  0.65765174  0.59491744    -0.36100
N499        N  0.89257865  0.65939657  0.57090443    -0.28300
C500        C  0.90839874  0.64165434  0.56366646    -0.03500
C501        C  0.91596449  0.62805994  0.58412165     0.05100
C502        C  0.90390407  0.63895463  0.60349375     0.03200
H503        H  0.91371717  0.63871492  0.54487156     0.08300
H504        H  0.90522831  0.63401996  0.62265950     0.07100
N505        N  0.74780044  0.69581673  0.77059774    -0.27300
N506        N  0.72728970  0.70674695  0.77755758    -0.35200
C507        C  0.71638604  0.69267306  0.79456153     0.01000
C508        C  0.73065396  0.67182401  0.79827324     0.07100
C509        C  0.75040328  0.67433970  0.78278203    -0.06000
H510        H  0.69897584  0.69696047  0.80297645     0.07700
H511        H  0.76538787  0.66144111  0.78029681     0.08900
Cu512      Cu  0.71389725  0.73910544  0.76226008     0.44200
Cu513      Cu  0.77075812  0.71019272  0.74438241     0.42000
Cu514      Cu  0.75097722  0.76775991  0.71593984     0.43900
N515        N  0.70266710  0.76955601  0.74210497    -0.34700
N516        N  0.71628349  0.78027532  0.72522213    -0.28900
C517        C  0.70303649  0.79823507  0.71420242    -0.05000
C518        C  0.67998675  0.79873098  0.72465450     0.07200
C519        C  0.68041177  0.78034339  0.74229878     0.01000
H520        H  0.70937007  0.80932476  0.69900501     0.08600
H521        H  0.66537430  0.77451968  0.75376155     0.07700
N522        N  0.78204125  0.74819919  0.70584165    -0.36100
N523        N  0.78916560  0.72721062  0.71617580    -0.28300
C524        C  0.80763826  0.71746975  0.70318974    -0.03500
C525        C  0.81218378  0.73295368  0.68359844     0.05100
C526        C  0.79576929  0.75232996  0.68592982     0.03200
H527        H  0.81568390  0.69947471  0.70662321     0.08300
H528        H  0.79268800  0.76731009  0.67308338     0.07100
N529        N  0.53417666  0.83820437  0.68863257    -0.27300
N530        N  0.54581303  0.82588579  0.70616917    -0.35200
C531        C  0.53085012  0.80860980  0.71534570     0.01000
C532        C  0.50861725  0.80989869  0.70295954     0.07100
C533        C  0.51138435  0.82894619  0.68611565    -0.06000
H534        H  0.53643965  0.79500269  0.72886278     0.07700
H535        H  0.49820880  0.83504117  0.67241732     0.08900
Cu536      Cu  0.58275398  0.82917812  0.71376781     0.44200
Cu537      Cu  0.55126316  0.86468795  0.66715720     0.42000
Cu538      Cu  0.61844223  0.86164577  0.66944466     0.43900
N539        N  0.62047320  0.82683850  0.71238251    -0.34700
N540        N  0.63374953  0.83806055  0.69556057    -0.28900
C541        C  0.65724063  0.83049248  0.69783430    -0.05000
C542        C  0.65865452  0.81366218  0.71696698     0.07200
C543        C  0.63502495  0.81185007  0.72579218     0.01000
H544        H  0.67195697  0.83611910  0.68587528     0.08600
H545        H  0.62859493  0.79964400  0.74008609     0.07700
N546        N  0.59843946  0.88544629  0.64686363    -0.36100
N547        N  0.57419361  0.88700165  0.64649489    -0.28300
C548        C  0.56731412  0.90482701  0.63061378    -0.03500
C549        C  0.58820609  0.91501052  0.62032445     0.05100
C550        C  0.60758525  0.90215190  0.63112656     0.03200
H551        H  0.54840893  0.90982550  0.62682319     0.08300
H552        H  0.62699760  0.90500741  0.62825614     0.07100
N553        N  0.70685499  0.52742823  0.85327365    -0.27300
N554        N  0.72374516  0.53790144  0.83949333    -0.35200
C555        C  0.73454247  0.52048231  0.82582543     0.01000
C556        C  0.72379940  0.49791289  0.83103916     0.07100
C557        C  0.70634328  0.50308288  0.84862900    -0.06000
H558        H  0.74774789  0.52437051  0.81164459     0.07700
H559        H  0.69328491  0.49040418  0.85655063     0.08900
Cu560      Cu  0.72798876  0.57572853  0.83593950     0.44200
Cu561      Cu  0.68295031  0.54703270  0.87508974     0.42000
Cu562      Cu  0.68153055  0.61282654  0.86534463     0.43900
N563        N  0.72362513  0.61329779  0.83010123    -0.34700
N564        N  0.70617553  0.62656669  0.84045880    -0.28900
C565        C  0.70648596  0.64955028  0.83120475    -0.05000
C566        C  0.72505000  0.65082381  0.81422743     0.07200
C567        C  0.73564616  0.62758673  0.81399364     0.01000
H568        H  0.69367666  0.66401486  0.83602703     0.08600
H569        H  0.75019682  0.62119745  0.80220837     0.07700
N570        N  0.65922403  0.59483427  0.88978928    -0.36100
N571        N  0.65997514  0.57075701  0.89366077    -0.28300
C572        C  0.64394568  0.56494541  0.91129847    -0.03500
C573        C  0.63248824  0.58644485  0.91883286     0.05100
C574        C  0.64262738  0.60503175  0.90473544     0.03200
H575        H  0.64096795  0.54641876  0.91810459     0.08300
H576        H  0.63883874  0.62462308  0.90571142     0.07100
N577        N  0.63045306  0.80054570  0.35630204    -0.27300
N578        N  0.61115824  0.78774328  0.34880387    -0.35200
C579        C  0.59648592  0.80234522  0.33512114     0.01000
C580        C  0.60698143  0.82550881  0.33345296     0.07100
C581        C  0.62847254  0.82369763  0.34730923    -0.06000
H582        H  0.58062267  0.79574916  0.32508673     0.07700
H583        H  0.64249976  0.83763438  0.34939358     0.08900
Cu584      Cu  0.60759128  0.74980095  0.35089375     0.44200
Cu585      Cu  0.66094402  0.78520924  0.37460756     0.42000
Cu586      Cu  0.66216542  0.71921524  0.36925624     0.43900
N587        N  0.61269917  0.71230123  0.34613859    -0.34700
N588        N  0.63322476  0.70117762  0.35308152    -0.28900
C589        C  0.63308667  0.67780903  0.34513791    -0.05000
C590        C  0.61149313  0.67404105  0.33230826     0.07200
C591        C  0.59887481  0.69625973  0.33332949     0.01000
H592        H  0.64831804  0.66506863  0.34722205     0.08600
H593        H  0.58178024  0.70090816  0.32414107     0.07700
N594        N  0.69027449  0.73911296  0.38472840    -0.36100
N595        N  0.68997921  0.76328044  0.38788121    -0.28300
C596        C  0.71048169  0.76969085  0.40037726    -0.03500
C597        C  0.72432408  0.74845526  0.40492555     0.05100
C598        C  0.71081587  0.72955727  0.39463771     0.03200
H599        H  0.71482009  0.78831891  0.40598005     0.08300
H600        H  0.71494153  0.71000419  0.39532951     0.07100
N601        N  0.58869283  0.62747386  0.29025301    -0.27300
N602        N  0.60976617  0.61737772  0.29729956    -0.35200
C603        C  0.62048069  0.63195836  0.31401875     0.01000
C604        C  0.60552227  0.65225034  0.31760322     0.07100
C605        C  0.58549954  0.64885230  0.30228210    -0.06000
H606        H  0.63837972  0.62851994  0.32211226     0.07700
H607        H  0.57030047  0.66145583  0.29925167     0.08900
Cu608      Cu  0.62484725  0.58577153  0.28250415     0.44200
Cu609      Cu  0.56681778  0.61356699  0.26246701     0.42000
Cu610      Cu  0.59158048  0.56049834  0.23163546     0.43900
N611        N  0.63673594  0.55526006  0.26331471    -0.34700
N612        N  0.62401048  0.54565519  0.24501994    -0.28900
C613        C  0.63703766  0.52725175  0.23505063    -0.05000
C614        C  0.65914697  0.52532204  0.24751636     0.07200
C615        C  0.65837719  0.54332120  0.26538058     0.01000
H616        H  0.63145352  0.51715606  0.21890813     0.08600
H617        H  0.67287624  0.54819781  0.27811458     0.07700
N618        N  0.56244620  0.58116269  0.21822050    -0.36100
N619        N  0.55283132  0.60017910  0.22985361    -0.28300
C620        C  0.53590633  0.61107072  0.21531048    -0.03500
C621        C  0.53512291  0.59846111  0.19338160     0.05100
C622        C  0.55214270  0.57960488  0.19584984     0.03200
H623        H  0.52633050  0.62800799  0.21966656     0.08300
H624        H  0.55760841  0.56653548  0.18198402     0.07100
N625        N  0.80236844  0.48732162  0.20405133    -0.27300
N626        N  0.79257091  0.49864491  0.22302826    -0.35200
C627        C  0.80888829  0.51463653  0.23235726     0.01000
C628        C  0.83007754  0.51359984  0.21858094     0.07100
C629        C  0.82526886  0.49598101  0.20079278    -0.06000
H630        H  0.80483898  0.52735595  0.24699817     0.07700
H631        H  0.83708393  0.49055540  0.18592405     0.08900
Cu632      Cu  0.75619740  0.49610288  0.23305052     0.44200
Cu633      Cu  0.78311014  0.46294352  0.18160386     0.42000
Cu634      Cu  0.71746072  0.46459528  0.19026342     0.43900
N635        N  0.71834713  0.49764880  0.23428690    -0.34700
N636        N  0.70418907  0.48630379  0.21816316    -0.28900
C637        C  0.68080163  0.49334757  0.22143112    -0.05000
C638        C  0.68021905  0.51005607  0.24044829     0.07200
C639        C  0.70432619  0.51230376  0.24829680     0.01000
H640        H  0.66561003  0.48783552  0.20981838     0.08600
H641        H  0.71138812  0.52493607  0.26190884     0.07700
N642        N  0.73427786  0.44356460  0.16378134    -0.36100
N643        N  0.75833453  0.44218135  0.16097956    -0.28300
C644        C  0.76320998  0.42565999  0.14331526    -0.03500
C645        C  0.74112077  0.41640940  0.13446824     0.05100
C646        C  0.72320250  0.42830001  0.14785087     0.03200
H647        H  0.78149091  0.42070138  0.13742403     0.08300
H648        H  0.70356996  0.42540568  0.14678445     0.07100
N649        N  0.50795657  0.63974954  0.04580662    -0.27300
N650        N  0.52018630  0.62218188  0.05756566    -0.35200
C651        C  0.53668543  0.61217148  0.04244190     0.01000
C652        C  0.53484011  0.62397190  0.01993752     0.07100
C653        C  0.51634978  0.64138161  0.02278515    -0.06000
H654        H  0.54968765  0.59801399  0.04792264     0.07700
H655        H  0.50971240  0.65460970  0.00937150     0.08900
Cu656      Cu  0.51609267  0.61393046  0.09419448     0.44200
Cu657      Cu  0.48175198  0.66165478  0.06220540     0.42000
Cu658      Cu  0.47551899  0.65221532  0.12818087     0.43900
N659        N  0.51360794  0.61232251  0.13181027    -0.34700
N660        N  0.49911852  0.62696577  0.14453122    -0.28900
C661        C  0.50385594  0.62366763  0.16852804    -0.05000
C662        C  0.52210933  0.60596902  0.17090833     0.07200
C663        C  0.52781042  0.59911715  0.14729177     0.01000
H664        H  0.49531605  0.63404623  0.18305660     0.08600
H665        H  0.54222260  0.58660540  0.14168981     0.07700
N666        N  0.45524827  0.67737687  0.10772104    -0.36100
N667        N  0.45749896  0.68094338  0.08389159    -0.28300
C668        C  0.44176810  0.69877310  0.07665575    -0.03500
C669        C  0.42901256  0.70687282  0.09694380     0.05100
C670        C  0.43806949  0.69282227  0.11628299     0.03200
H671        H  0.43998426  0.70541442  0.05801662     0.08300
H672        H  0.43248127  0.69346372  0.13522262     0.07100
N673        N  0.30017796  0.83423974  0.14154849    -0.27300
N674        N  0.28852481  0.82307570  0.12342940    -0.35200
C675        C  0.30350800  0.80602981  0.11367702     0.01000
C676        C  0.32551914  0.80633807  0.12653459     0.07100
C677        C  0.32275928  0.82451381  0.14398394    -0.06000
H678        H  0.29806448  0.79304840  0.09965913     0.07700
H679        H  0.33569257  0.82945676  0.15827149     0.08900
Cu680      Cu  0.25140502  0.82759803  0.11662410     0.44200
Cu681      Cu  0.28385561  0.85870675  0.16522030     0.42000
Cu682      Cu  0.21795049  0.85453886  0.16715332     0.43900
N683        N  0.21357077  0.82783007  0.11909467    -0.34700
N684        N  0.20135820  0.83676363  0.13792629    -0.28900
C685        C  0.17738004  0.83150776  0.13510068    -0.05000
C686        C  0.17446419  0.81866256  0.11346096     0.07200
C687        C  0.19773753  0.81672325  0.10376620     0.01000
H688        H  0.16330743  0.83596856  0.14824486     0.08600
H689        H  0.20301671  0.80686058  0.08744732     0.07700
N690        N  0.23870279  0.87444188  0.19206461    -0.36100
N691        N  0.26278657  0.87683544  0.19068715    -0.28300
C692        C  0.27051233  0.89246782  0.20813151    -0.03500
C693        C  0.25028194  0.90020412  0.22126204     0.05100
C694        C  0.23043616  0.88833000  0.21057958     0.03200
H695        H  0.28942422  0.89796655  0.21080597     0.08300
H696        H  0.21125014  0.89053781  0.21510056     0.07100
N697        N  0.04595877  0.73231759  0.11088650    -0.27300
N698        N  0.05312950  0.75214424  0.12299216    -0.35200
C699        C  0.04030180  0.75387270  0.14378146     0.01000
C700        C  0.02432588  0.73415847  0.14490503     0.07100
C701        C  0.02829853  0.72087429  0.12372488    -0.06000
H702        H  0.04342620  0.76770318  0.15767771     0.07700
H703        H  0.02000855  0.70348398  0.11866794     0.08900
Cu704      Cu  0.08249554  0.77395445  0.11318886     0.44200
Cu705      Cu  0.06280369  0.72006083  0.07925252     0.42000
Cu706      Cu  0.11562636  0.75484209  0.05960208     0.43900
N707        N  0.11569398  0.78894227  0.10297068    -0.34700
N708        N  0.12775283  0.78191259  0.08328501    -0.28900
C709        C  0.15002042  0.79248031  0.08339562    -0.05000
C710        C  0.15209112  0.80677630  0.10418715     0.07200
C711        C  0.12996195  0.80423220  0.11614789     0.01000
H712        H  0.16418320  0.78872614  0.07013571     0.08600
H713        H  0.12519604  0.81153849  0.13389237     0.07700
N714        N  0.10406210  0.72275909  0.04281331    -0.36100
N715        N  0.08495328  0.70983547  0.05026435    -0.28300
C716        C  0.08423315  0.68844907  0.03791589    -0.03500
C717        C  0.10385245  0.68788540  0.02197830     0.05100
C718        C  0.11597290  0.70998456  0.02546945     0.03200
H719        H  0.07117395  0.67384081  0.04129340     0.08300
H720        H  0.13308032  0.71564935  0.01726055     0.07100
N721        N  0.98730838  0.70751107  0.29127892    -0.27300
N722        N  0.99749270  0.72574622  0.27893186    -0.35200
C723        C  0.01182678  0.73889224  0.29418250     0.01000
C724        C  0.01065323  0.72836449  0.31734874     0.07100
C725        C  0.99481599  0.70852270  0.31471379    -0.06000
H726        H  0.02322358  0.75414185  0.28844893     0.07700
H727        H  0.98960584  0.69522866  0.32853224     0.08900
Cu728      Cu  0.99419394  0.72931633  0.24140224     0.44200
Cu729      Cu  0.96610369  0.68034924  0.27521979     0.42000
Cu730      Cu  0.96816996  0.67700989  0.20899795     0.43900
N731        N  0.99612718  0.72452586  0.20400494    -0.34700
N732        N  0.98754798  0.70510677  0.19215361    -0.28900
C733        C  0.99523397  0.70606395  0.16881267    -0.05000
C734        C  0.00931032  0.72708991  0.16598756     0.07200
C735        C  0.00935664  0.73838090  0.18859351     0.01000
H736        H  0.99188981  0.69186922  0.15533170     0.08600
H737        H  0.01961678  0.75457283  0.19396000     0.07700
N738        N  0.94974783  0.65191798  0.23082870    -0.36100
N739        N  0.94869474  0.65332661  0.25493232    -0.28300
C740        C  0.93479961  0.63475748  0.26343467    -0.03500
C741        C  0.92668434  0.62087468  0.24370951     0.05100
C742        C  0.93659924  0.63238758  0.22333555     0.03200
H743        H  0.93088315  0.63177565  0.28259362     0.08300
H744        H  0.93396970  0.62746381  0.20433730     0.07100
N745        N  0.13876618  0.54122640  0.98476634    -0.27300
N746        N  0.12122406  0.55288553  0.99664786    -0.35200
C747        C  0.11118237  0.53739094  0.01297758     0.01000
C748        C  0.12312458  0.51486521  0.01144805     0.07100
C749        C  0.14050321  0.51796590  0.99330593    -0.06000
H750        H  0.09746423  0.54270776  0.02618270     0.07700
H751        H  0.15409240  0.50468438  0.98743105     0.08900
Cu752      Cu  0.11516517  0.59033839  0.99350499     0.44200
Cu753      Cu  0.16140717  0.55876607  0.96004728     0.42000
Cu754      Cu  0.16148972  0.62627938  0.96242974     0.43900
N755        N  0.11715588  0.62827541  0.99504671    -0.34700
N756        N  0.13458638  0.64159806  0.98473820    -0.28900
C757        C  0.13208825  0.66522516  0.99197373    -0.05000
C758        C  0.11210723  0.66665071  0.00748085     0.07200
C759        C  0.10309027  0.64291942  0.00891327     0.01000
H760        H  0.14436544  0.68004438  0.98697238     0.08600
H761        H  0.08823722  0.63643502  0.02026713     0.07700
N762        N  0.18402510  0.60535796  0.93976159    -0.36100
N763        N  0.18349929  0.58098457  0.93872549    -0.28300
C764        C  0.19935467  0.57321338  0.92169361    -0.03500
C765        C  0.21056539  0.59362311  0.91130643     0.05100
C766        C  0.20036462  0.61371212  0.92335387     0.03200
H767        H  0.20231294  0.55400256  0.91728095     0.08300
H768        H  0.20403221  0.63305863  0.92014399     0.07100
C769        C  0.34596473  0.78858041  0.12468223    -0.05200
C770        C  0.35935473  0.78176478  0.14575622    -0.05200
C771        C  0.37838162  0.76457084  0.14438162    -0.23300
C772        C  0.38448862  0.75409380  0.12184848     0.18900
C773        C  0.37134091  0.76101988  0.10045759     0.16100
C774        C  0.35196265  0.77806727  0.10204607    -0.18400
C775        C  0.37780825  0.75073344  0.07789923    -0.20200
C776        C  0.39686761  0.73343544  0.07663722    -0.12800
C777        C  0.40964055  0.72603162  0.09793115     0.03900
C778        C  0.40346442  0.73669578  0.12044830    -0.24900
H779        H  0.35481807  0.78937275  0.16345131     0.09000
H780        H  0.38826133  0.75941656  0.16094818     0.12600
H781        H  0.34176550  0.78336006  0.08570424     0.12500
H782        H  0.36802471  0.75591573  0.06128898     0.12300
H783        H  0.40120794  0.72549509  0.05904715     0.12800
H784        H  0.41342677  0.73157618  0.13695922     0.14800
C785        C  0.85138154  0.53047777  0.22042529    -0.05200
C786        C  0.86653474  0.53462180  0.20011886    -0.05200
C787        C  0.88514309  0.55228854  0.20109668    -0.23300
C788        C  0.88892136  0.56615297  0.22238932     0.18900
C789        C  0.87437845  0.56157130  0.24319551     0.16100
C790        C  0.85580008  0.54372173  0.24212051    -0.18400
C791        C  0.87824063  0.57537735  0.26451358    -0.20200
C792        C  0.89572620  0.59419292  0.26491495    -0.12800
C793        C  0.90970540  0.59952547  0.24401442     0.03900
C794        C  0.90655207  0.58495049  0.22297884    -0.24900
H795        H  0.86354437  0.52481976  0.18314893     0.09000
H796        H  0.89619359  0.55551502  0.18499288     0.12600
H797        H  0.84454044  0.54048977  0.25806954     0.12500
H798        H  0.86734120  0.57201981  0.28069533     0.12300
H799        H  0.89770625  0.60499263  0.28141369     0.12800
H800        H  0.91746489  0.58842717  0.20685381     0.14800
C801        C  0.61441099  0.58921769  0.93860012    -0.05200
C802        C  0.61304238  0.57143008  0.95733089    -0.05200
C803        C  0.59675487  0.57448283  0.97664556    -0.23300
C804        C  0.58150191  0.59533647  0.97749355     0.18900
C805        C  0.58238997  0.61312575  0.95853224     0.16100
C806        C  0.59884985  0.60996779  0.93920861    -0.18400
C807        C  0.56698958  0.63388933  0.95938132    -0.20200
C808        C  0.55120096  0.63724699  0.97912280    -0.12800
C809        C  0.55054365  0.61988724  0.99833598     0.03900
C810        C  0.56558754  0.59878543  0.99716160    -0.24900
H811        H  0.62495778  0.55539099  0.95740201     0.09000
H812        H  0.59628849  0.56067206  0.99105591     0.12600
H813        H  0.59951442  0.62365644  0.92469841     0.12500
H814        H  0.56737686  0.64768076  0.94495051     0.12300
H815        H  0.53990543  0.65370943  0.97949661     0.12800
H816        H  0.56507441  0.58498287  0.01154551     0.14800
C817        C  0.80777805  0.74317000  0.49102377    -0.05200
C818        C  0.79420950  0.76526053  0.49307962    -0.05200
C819        C  0.77646274  0.77178151  0.47556240    -0.23300
C820        C  0.77181510  0.75634593  0.45558518     0.18900
C821        C  0.78602820  0.73464680  0.45270541     0.16100
C822        C  0.80403163  0.72830669  0.47028881    -0.18400
C823        C  0.78132214  0.71913829  0.43278269    -0.20200
C824        C  0.76193680  0.72436305  0.41664392    -0.12800
C825        C  0.74696023  0.74530090  0.41994577     0.03900
C826        C  0.75256295  0.76170624  0.43902703    -0.24900
H827        H  0.79695605  0.77744120  0.50848423     0.09000
H828        H  0.76593061  0.78860075  0.47800182     0.12600
H829        H  0.81426059  0.71125120  0.46832300     0.12500
H830        H  0.79214298  0.70254909  0.43010189     0.12300
H831        H  0.75834071  0.71164553  0.40182128     0.12800
H832        H  0.74114729  0.77786879  0.44183437     0.14800
C833        C  0.58958203  0.93566165  0.60236385    -0.05200
C834        C  0.56903130  0.95091185  0.59786681    -0.05200
C835        C  0.57047720  0.97091197  0.58167922    -0.23300
C836        C  0.59248380  0.97610254  0.56961004     0.18900
C837        C  0.61312271  0.96063638  0.57356293     0.16100
C838        C  0.61154783  0.94057882  0.58986644    -0.18400
C839        C  0.63507212  0.96567445  0.56133687    -0.20200
C840        C  0.63673254  0.98607544  0.54569346    -0.12800
C841        C  0.61649441  0.00194712  0.54199663     0.03900
C842        C  0.59430447  0.99664122  0.55390653    -0.24900
H843        H  0.55187991  0.94774701  0.60719208     0.09000
H844        H  0.55442033  0.98250975  0.57882202     0.12600
H845        H  0.62750117  0.92887177  0.59277918     0.12500
H846        H  0.65108788  0.95399219  0.56409614     0.12300
H847        H  0.65411485  0.98969708  0.53696097     0.12800
H848        H  0.57843948  0.00849400  0.55103255     0.14800
C849        C  0.75121278  0.41372571  0.75140305    -0.05200
C850        C  0.77149646  0.42931979  0.75499915    -0.05200
C851        C  0.77084761  0.44786283  0.77265439    -0.23300
C852        C  0.74995956  0.45104264  0.78712112     0.18900
C853        C  0.72993611  0.43468821  0.78451009     0.16100
C854        C  0.73065844  0.41618858  0.76661001    -0.18400
C855        C  0.70922224  0.43767623  0.79928633    -0.20200
C856        C  0.70773991  0.45753960  0.81545112    -0.12800
C857        C  0.72694189  0.47477645  0.81706731     0.03900
C858        C  0.74837044  0.47087464  0.80343733    -0.24900
H859        H  0.78753768  0.42781816  0.74352600     0.09000
H860        H  0.78643055  0.46013836  0.77453305     0.12600
H861        H  0.71507630  0.40398751  0.76424701     0.12500
H862        H  0.69380858  0.42514568  0.79774125     0.12300
H863        H  0.69103975  0.46000567  0.82576280     0.12800
H864        H  0.76352571  0.48373206  0.80489639     0.14800
C865        C  0.93323597  0.60670327  0.58559295    -0.05200
C866        C  0.94883786  0.60095644  0.56602873    -0.05200
C867        C  0.96579584  0.58151059  0.56802083    -0.23300
C868        C  0.96749727  0.56744069  0.58963326     0.18900
C869        C  0.95155730  0.57268527  0.60918083     0.16100
C870        C  0.93455965  0.59213160  0.60702300    -0.18400
C871        C  0.95310591  0.55863566  0.63076661    -0.20200
C872        C  0.97077420  0.53999848  0.63327540    -0.12800
C873        C  0.98729439  0.53499573  0.61425913     0.03900
C874        C  0.98516166  0.54856702  0.59222937    -0.24900
H875        H  0.94831207  0.61176239  0.54931765     0.09000
H876        H  0.97783020  0.57771826  0.55278634     0.12600
H877        H  0.92246195  0.59586117  0.62218960     0.12500
H878        H  0.94095029  0.56237421  0.64592256     0.12300
H879        H  0.97187827  0.53004666  0.65046490     0.12800
H880        H  0.99744855  0.54478210  0.57721187     0.14800
C881        C  0.02502925  0.73519739  0.33947370    -0.05200
C882        C  0.03721799  0.75801750  0.34083231    -0.05200
C883        C  0.05163428  0.76391694  0.36128585    -0.23300
C884        C  0.05429680  0.74700500  0.38065582     0.18900
C885        C  0.04178255  0.72422058  0.37963842     0.16100
C886        C  0.02719417  0.71854552  0.35920734    -0.18400
C887        C  0.04457519  0.70712273  0.39877811    -0.20200
C888        C  0.06043728  0.71208835  0.41829302    -0.12800
C889        C  0.07364439  0.73431246  0.41915010     0.03900
C890        C  0.06992281  0.75206577  0.40058748    -0.24900
H891        H  0.03570940  0.77134620  0.32607221     0.09000
H892        H  0.06103227  0.78151294  0.36175405     0.12600
H893        H  0.01818420  0.70078256  0.35849355     0.12500
H894        H  0.03497386  0.68963422  0.39835784     0.12300
H895        H  0.06268211  0.69828202  0.43254249     0.12800
H896        H  0.08008461  0.76922327  0.40094588     0.14800
C897        C  0.29221202  0.61622113  0.82711169    -0.05200
C898        C  0.28701723  0.63792309  0.84013611    -0.05200
C899        C  0.26991772  0.63784274  0.85901668    -0.23300
C900        C  0.25782533  0.61599053  0.86539793     0.18900
C901        C  0.26288792  0.59404260  0.85244874     0.16100
C902        C  0.27988799  0.59432557  0.83324003    -0.18400
C903        C  0.25095593  0.57216847  0.85904272    -0.20200
C904        C  0.23412910  0.57204063  0.87821668    -0.12800
C905        C  0.22877596  0.59380838  0.89116699     0.03900
C906        C  0.24082307  0.61575754  0.88456755    -0.24900
H907        H  0.29594079  0.65513901  0.83554644     0.09000
H908        H  0.26620909  0.65486950  0.86866877     0.12600
H909        H  0.28383043  0.57746306  0.82338929     0.12500
H910        H  0.25462044  0.55514293  0.84937077     0.12300
H911        H  0.22518123  0.55482051  0.88263613     0.12800
H912        H  0.23719128  0.63268439  0.89437286     0.14800
C913        C  0.43087179  0.72339051  0.73132721    -0.05200
C914        C  0.44625719  0.72819391  0.75153152    -0.05200
C915        C  0.46409492  0.74663530  0.75024496    -0.23300
C916        C  0.46669653  0.76069256  0.72880193     0.18900
C917        C  0.45079858  0.75651894  0.70868052     0.16100
C918        C  0.43304700  0.73790678  0.71006961    -0.18400
C919        C  0.45317646  0.77077550  0.68735354    -0.20200
C920        C  0.47155179  0.78862337  0.68571597    -0.12800
C921        C  0.48792207  0.79244313  0.70534909     0.03900
C922        C  0.48514282  0.77858374  0.72699199    -0.24900
H923        H  0.44498073  0.71725240  0.76810404     0.09000
H924        H  0.47607208  0.74966742  0.76588975     0.12600
H925        H  0.42099293  0.73469235  0.69452540     0.12500
H926        H  0.44106698  0.76785677  0.67178780     0.12300
H927        H  0.47335238  0.79891071  0.66879996     0.12800
H928        H  0.49741277  0.78157818  0.74241330     0.14800
C929        C  0.91197159  0.23321958  0.58834002    -0.05200
C930        C  0.89376522  0.23665962  0.57022664    -0.05200
C931        C  0.87468504  0.25364583  0.57372440    -0.23300
C932        C  0.87350185  0.26737500  0.59542093     0.18900
C933        C  0.89245444  0.26492422  0.61307677     0.16100
C934        C  0.91162702  0.24812276  0.60931304    -0.18400
C935        C  0.89147143  0.27859415  0.63471385    -0.20200
C936        C  0.87129563  0.29370368  0.63942908    -0.12800
C937        C  0.85170032  0.29558626  0.62254702     0.03900
C938        C  0.85332424  0.28282183  0.60017679    -0.24900
H939        H  0.89364434  0.22551355  0.55383374     0.09000
H940        H  0.86043080  0.25542201  0.55985453     0.12600
H941        H  0.92587122  0.24614665  0.62316139     0.12500
H942        H  0.90597694  0.27704348  0.64835385     0.12300
H943        H  0.87091061  0.30334144  0.65669811     0.12800
H944        H  0.83868361  0.28427511  0.58671329     0.14800
C945        C  0.19703899  0.84703059  0.53383230    -0.05200
C946        C  0.17708585  0.86260839  0.53919283    -0.05200
C947        C  0.17979369  0.88209471  0.55558043    -0.23300
C948        C  0.20253033  0.88647168  0.56686250     0.18900
C949        C  0.22298910  0.87157121  0.56094865     0.16100
C950        C  0.22011740  0.85193541  0.54448217    -0.18400
C951        C  0.24581473  0.87626764  0.57202829    -0.20200
C952        C  0.24817463  0.89511877  0.58927751    -0.12800
C953        C  0.22771665  0.90945920  0.59586423     0.03900
C954        C  0.20500046  0.90521466  0.58429919    -0.24900
H955        H  0.15906188  0.85928866  0.53143804     0.09000
H956        H  0.16395451  0.89343252  0.55980985     0.12600
H957        H  0.23574199  0.84029692  0.54027160     0.12500
H958        H  0.26174345  0.86512419  0.56764754     0.12300
H959        H  0.26587414  0.89798925  0.59795794     0.12800
H960        H  0.18918306  0.91642310  0.58891485     0.14800
C961        C  0.33672809  0.04498764  0.69974881    -0.05200
C962        C  0.35048913  0.05200143  0.67923655    -0.05200
C963        C  0.37082550  0.06745946  0.68186244    -0.23300
C964        C  0.37783496  0.07596857  0.70509151     0.18900
C965        C  0.36454358  0.06836468  0.72589537     0.16100
C966        C  0.34402764  0.05304154  0.72308923    -0.18400
C967        C  0.37173869  0.07653907  0.74914130    -0.20200
C968        C  0.39141163  0.09279469  0.75170869    -0.12800
C969        C  0.40427295  0.10123533  0.73108258     0.03900
C970        C  0.39761308  0.09229699  0.70780719    -0.24900
H971        H  0.34513967  0.04608928  0.66105613     0.09000
H972        H  0.38084783  0.07302249  0.66570980     0.12600
H973        H  0.33373090  0.04742978  0.73905962     0.12500
H974        H  0.36187315  0.07072280  0.76530614     0.12300
H975        H  0.39603133  0.09920059  0.76988522     0.12800
H976        H  0.40754469  0.09819095  0.69173471     0.14800
C977        C  0.11742972  0.34416507  0.80150237    -0.05200
C978        C  0.13676380  0.36082412  0.79748771    -0.05200
C979        C  0.13453028  0.37961207  0.77997671    -0.23300
C980        C  0.11286873  0.38224820  0.76615944     0.18900
C981        C  0.09295351  0.36621862  0.77056507     0.16100
C982        C  0.09534764  0.34730575  0.78816877    -0.18400
C983        C  0.07114302  0.36913894  0.75697382    -0.20200
C984        C  0.06927674  0.38740379  0.73884201    -0.12800
C985        C  0.08925875  0.40292009  0.73376708     0.03900
C986        C  0.11094623  0.40038492  0.74775306    -0.24900
H987        H  0.15400248  0.35897017  0.80731487     0.09000
H988        H  0.14994160  0.39183150  0.77695003     0.12600
H989        H  0.08009210  0.33491317  0.79122499     0.12500
H990        H  0.05563264  0.35708323  0.76013357     0.12300
H991        H  0.05240886  0.38888095  0.72829412     0.12800
H992        H  0.12637960  0.41245341  0.74426951     0.14800
C993        C  0.59874286  0.90995307  0.24816563    -0.05200
C994        C  0.62221947  0.91054252  0.25919127    -0.05200
C995        C  0.62798878  0.89533068  0.27913227    -0.23300
C996        C  0.61042898  0.87913067  0.28853710     0.18900
C997        C  0.58651549  0.87889701  0.27823757     0.16100
C998        C  0.58075416  0.89442095  0.25823976    -0.18400
C999        C  0.56901612  0.86257256  0.28765012    -0.20200
C1000       C  0.57543620  0.84596817  0.30633793    -0.12800
C1001       C  0.59944652  0.84540860  0.31610305     0.03900
C1002       C  0.61667074  0.86260436  0.30751184    -0.24900
H1003       H  0.63637998  0.92261841  0.25231613     0.09000
H1004       H  0.64636613  0.89590842  0.28689066     0.12600
H1005       H  0.56259312  0.89368398  0.25002861     0.12500
H1006       H  0.55052908  0.86221092  0.28015311     0.12300
H1007       H  0.56164748  0.83322289  0.31281934     0.12800
H1008       H  0.63527886  0.86240897  0.31468175     0.14800
C1009       C  0.53067742  0.20984886  0.84782683    -0.05200
C1010       C  0.52980738  0.19260458  0.86713102    -0.05200
C1011       C  0.54413931  0.19588595  0.88822231    -0.23300
C1012       C  0.55957221  0.21645532  0.89035052     0.18900
C1013       C  0.55977184  0.23441567  0.87152353     0.16100
C1014       C  0.54525583  0.23107379  0.85053827    -0.18400
C1015       C  0.57497767  0.25514667  0.87368786    -0.20200
C1016       C  0.59039825  0.25774428  0.89404706    -0.12800
C1017       C  0.59098590  0.23955726  0.91241961     0.03900
C1018       C  0.57525467  0.21910161  0.91065552    -0.24900
H1019       H  0.51868833  0.17615540  0.86568819     0.09000
H1020       H  0.54359508  0.18204126  0.90259909     0.12600
H1021       H  0.54575011  0.24489360  0.83616869     0.12500
H1022       H  0.57530785  0.26909899  0.85940485     0.12300
H1023       H  0.60251202  0.27353121  0.89498554     0.12800
H1024       H  0.57546257  0.20510688  0.92491953     0.14800
C1025       C  0.73736677  0.39680540  0.11602821    -0.05200
C1026       C  0.75523495  0.37834174  0.11294689    -0.05200
C1027       C  0.75146577  0.35922863  0.09626843    -0.23300
C1028       C  0.72989329  0.35839684  0.08210031     0.18900
C1029       C  0.71192322  0.37706060  0.08476425     0.16100
C1030       C  0.71567856  0.39603861  0.10184654    -0.18400
C1031       C  0.69053134  0.37635160  0.07031774    -0.20200
C1032       C  0.68684786  0.35721715  0.05357954    -0.12800
C1033       C  0.70443379  0.33829691  0.05099943     0.03900
C1034       C  0.72602095  0.33919375  0.06534889    -0.24900
H1035       H  0.77194525  0.37837736  0.12382886     0.09000
H1036       H  0.76543405  0.34504805  0.09448815     0.12600
H1037       H  0.70183992  0.41030978  0.10393627     0.12500
H1038       H  0.67657008  0.39055075  0.07203286     0.12300
H1039       H  0.67001168  0.35715362  0.04294129     0.12800
H1040       H  0.73997440  0.32503781  0.06351931     0.14800
C1041       C  0.78428835  0.13495420  0.34255820    -0.05200
C1042       C  0.77784456  0.15596144  0.35609121    -0.05200
C1043       C  0.76038921  0.15440764  0.37464372    -0.23300
C1044       C  0.74928996  0.13174950  0.38016278     0.18900
C1045       C  0.75609885  0.11038706  0.36707493     0.16100
C1046       C  0.77344374  0.11214691  0.34830739    -0.18400
C1047       C  0.74530198  0.08765599  0.37285411    -0.20200
C1048       C  0.72775122  0.08612049  0.39130282    -0.12800
C1049       C  0.72051357  0.10731361  0.40414880     0.03900
C1050       C  0.73145423  0.13011026  0.39848335    -0.24900
H1051       H  0.78576668  0.17377058  0.35188446     0.09000
H1052       H  0.75542482  0.17096640  0.38453162     0.12600
H1053       H  0.77847352  0.09575838  0.33817249     0.12500
H1054       H  0.75033740  0.07108368  0.36302587     0.12300
H1055       H  0.71951300  0.06838137  0.39516456     0.12800
H1056       H  0.72629831  0.14655955  0.40844299     0.14800
C1057       C  0.23553421  0.23200189  0.92798715    -0.05200
C1058       C  0.24603742  0.25195636  0.94064151    -0.05200
C1059       C  0.26415809  0.24791961  0.95856141    -0.23300
C1060       C  0.27211668  0.22385518  0.96414267     0.18900
C1061       C  0.26219847  0.20374270  0.95108419     0.16100
C1062       C  0.24414313  0.20794189  0.93309070    -0.18400
C1063       C  0.27019852  0.17966782  0.95649868    -0.20200
C1064       C  0.28755772  0.17548096  0.97504159    -0.12800
C1065       C  0.29712607  0.19527479  0.98857401     0.03900
C1066       C  0.28950168  0.21949920  0.98280964    -0.24900
H1067       H  0.23989627  0.27067429  0.93715381     0.09000
H1068       H  0.27165827  0.26358637  0.96832462     0.12600
H1069       H  0.23672461  0.19230308  0.92328340     0.12500
H1070       H  0.26274442  0.16403141  0.94665019     0.12300
H1071       H  0.29290045  0.15665664  0.97926517     0.12800
H1072       H  0.29691751  0.23494773  0.99297531     0.14800
C1073       C  0.41163913  0.07056732  0.10677409    -0.05200
C1074       C  0.41322874  0.06087699  0.13069719    -0.05200
C1075       C  0.43049219  0.04267879  0.13672263    -0.23300
C1076       C  0.44663511  0.03380440  0.11897802     0.18900
C1077       C  0.44460618  0.04260038  0.09462714     0.16100
C1078       C  0.42698305  0.06074649  0.08861251    -0.18400
C1079       C  0.46089461  0.03379122  0.07693669    -0.20200
C1080       C  0.47975254  0.01743275  0.08357533    -0.12800
C1081       C  0.48258151  0.00937463  0.10797696     0.03900
C1082       C  0.46538686  0.01705459  0.12543546    -0.24900
H1083       H  0.40135479  0.06758006  0.14500260     0.09000
H1084       H  0.43162470  0.03601125  0.15543671     0.12600
H1085       H  0.42604171  0.06793350  0.07008961     0.12500
H1086       H  0.45952765  0.04012443  0.05812401     0.12300
H1087       H  0.49246140  0.01149511  0.06963523     0.12800
H1088       H  0.46732642  0.01112079  0.14432124     0.14800
C1089       C  0.24942414  0.91918915  0.24054822    -0.05200
C1090       C  0.26718630  0.93793197  0.24143161    -0.05200
C1091       C  0.26484863  0.95747276  0.25784443    -0.23300
C1092       C  0.24475433  0.95853474  0.27368171     0.18900
C1093       C  0.22747120  0.93913308  0.27374542     0.16100
C1094       C  0.22993905  0.91957757  0.25722603    -0.18400
C1095       C  0.20754014  0.94005910  0.28973753    -0.20200
C1096       C  0.20400383  0.96063521  0.30460706    -0.12800
C1097       C  0.22036964  0.98069510  0.30381031     0.03900
C1098       C  0.24118816  0.97906899  0.28880326    -0.24900
H1099       H  0.28235766  0.93806515  0.22875666     0.09000
H1100       H  0.27836804  0.97211623  0.25764645     0.12600
H1101       H  0.21636972  0.90497312  0.25697526     0.12500
H1102       H  0.19425537  0.92520418  0.29021724     0.12300
H1103       H  0.18792944  0.96104280  0.31607265     0.12800
H1104       H  0.25431579  0.99402984  0.28826659     0.14800
C1105       C  0.10119628  0.08693512  0.42638354    -0.05200
C1106       C  0.10003869  0.06779763  0.44381286    -0.05200
C1107       C  0.08372373  0.06923566  0.46335971    -0.23300
C1108       C  0.06818465  0.08976528  0.46569893     0.18900
C1109       C  0.06893435  0.10886882  0.44800342     0.16100
C1110       C  0.08546533  0.10738169  0.42855896    -0.18400
C1111       C  0.05326372  0.12927051  0.45013004    -0.20200
C1112       C  0.03727059  0.13099397  0.46985409    -0.12800
C1113       C  0.03669783  0.11239284  0.48789702     0.03900
C1114       C  0.05210024  0.09165325  0.48553885    -0.24900
H1115       H  0.11208974  0.05191649  0.44265670     0.09000
H1116       H  0.08339840  0.05439646  0.47673241     0.12600
H1117       H  0.08595598  0.12210238  0.41506486     0.12500
H1118       H  0.05357421  0.14405182  0.43669176     0.12300
H1119       H  0.02583375  0.14728964  0.47121358     0.12800
H1120       H  0.05168177  0.07703122  0.49913428     0.14800
C1121       C  0.98549832  0.29994909  0.20429295    -0.05200
C1122       C  0.97012055  0.29417782  0.18435458    -0.05200
C1123       C  0.95058230  0.27777448  0.18717248    -0.23300
C1124       C  0.94586660  0.26706016  0.21006196     0.18900
C1125       C  0.96040036  0.27372262  0.23053760     0.16100
C1126       C  0.98023414  0.29000176  0.22749696    -0.18400
C1127       C  0.95522180  0.26344985  0.25353408    -0.20200
C1128       C  0.93651662  0.24597795  0.25602979    -0.12800
C1129       C  0.92272908  0.23831058  0.23555498     0.03900
C1130       C  0.92724406  0.24937762  0.21267599    -0.24900
H1131       H  0.97381037  0.30154053  0.16630147     0.09000
H1132       H  0.93949456  0.27304692  0.17131276     0.12600
H1133       H  0.99179452  0.29462126  0.24306337     0.12500
H1134       H  0.96597016  0.26854042  0.26950902     0.12300
H1135       H  0.93340497  0.23791255  0.27389407     0.12800
H1136       H  0.91643348  0.24411902  0.19680458     0.14800
C1137       C  0.09146122  0.43153770  0.09158647    -0.05200
C1138       C  0.07091994  0.44615870  0.08532691    -0.05200
C1139       C  0.07283913  0.46509298  0.06794820    -0.23300
C1140       C  0.09531423  0.46967247  0.05645480     0.18900
C1141       C  0.11589583  0.45470956  0.06218208     0.16100
C1142       C  0.11384375  0.43582402  0.07964663    -0.18400
C1143       C  0.13831856  0.45900288  0.05052045    -0.20200
C1144       C  0.14045382  0.47819845  0.03355645    -0.12800
C1145       C  0.12027650  0.49355602  0.02812563     0.03900
C1146       C  0.09766069  0.48909446  0.03954356    -0.24900
H1147       H  0.05344424  0.44334760  0.09418466     0.09000
H1148       H  0.05682677  0.47630561  0.06369532     0.12600
H1149       H  0.12976643  0.42450272  0.08385037     0.12500
H1150       H  0.15427305  0.44768281  0.05470677     0.12300
H1151       H  0.15812483  0.48142696  0.02520712     0.12800
H1152       H  0.08193734  0.50072816  0.03530324     0.14800
loop_ 
_geom_bond_atom_site_label_1 
_geom_bond_atom_site_label_2 
_geom_bond_distance 
_geom_bond_site_symmetry_2 
_ccdc_geom_bond_type 
N1            N2   1.322       .  A
N1            C5   1.348       .  A
N1           Cu9   2.082       .  S
N2            C3   1.340       .  A
N2           Cu8   2.058       .  S
C3            C4   1.379       .  A
C3            H6   1.082       .  S
C4            C5   1.387       .  A
C4           C86   1.470       .  S
C5            H7   1.082       .  S
Cu8          N11   2.059       .  S
Cu9          N19   2.082       .  S
Cu10         N12   2.078       .  S
Cu10         N18   2.079       .  S
N11          N12   1.320       .  A
N11          C15   1.343       .  A
N12          C13   1.347       .  A
C13          C14   1.386       .  A
C13          H16   1.082       .  S
C14          C15   1.381       .  A
C14          C62   1.471       .  S
C15          H17   1.082       .  S
N18          N19   1.324       .  A
N18          C22   1.344       .  A
N19          C20   1.347       .  A
C20          C21   1.384       .  A
C20          H23   1.082       .  S
C21          C22   1.382       .  A
C21          C38   1.473       .  S
C22          H24   1.082       .  S
N25          N26   1.322       .  A
N25          C29   1.346       .  A
N25         Cu33   2.077       .  S
N26          C27   1.346       .  A
N26         Cu32   2.080       .  S
C27          C28   1.386       .  A
C27          H30   1.082       .  S
C28          C29   1.386       .  A
C28        C1121   1.482   1_455  S
C29          H31   1.082   1_455  S
Cu32         N35   2.079       .  S
Cu33         N43   2.077       .  S
Cu34         N36   2.073       .  S
Cu34         N42   2.073       .  S
N35          N36   1.322       .  A
N35          C39   1.344       .  A
N36          C37   1.347       .  A
C37          C38   1.385       .  A
C37          H40   1.082       .  S
C38          C39   1.384       .  A
C39          H41   1.082       .  S
N42          N43   1.322       .  A
N42          C46   1.342       .  A
N43          C44   1.346       .  A
C44          C45   1.388       .  A
C44          H47   1.081       .  S
C45          C46   1.386       .  A
C45        C1137   1.484       .  S
C46          H48   1.081       .  S
N49          N50   1.320       .  A
N49          C53   1.342       .  A
N49         Cu57   2.061       .  S
N50          C51   1.344       .  A
N50         Cu56   2.077       .  S
C51          C52   1.390       .  A
C51          H54   1.081       .  S
C52          C53   1.387       .  A
C52        C1097   1.485   1_545  S
C53          H55   1.081   1_545  S
Cu56         N59   2.078       .  S
Cu57         N67   2.061       .  S
Cu58         N60   2.070       .  S
Cu58         N66   2.069       .  S
N59          N60   1.322       .  A
N59          C63   1.344       .  A
N60          C61   1.345       .  A
C61          C62   1.382       .  A
C61          H64   1.082       .  S
C62          C63   1.384       .  A
C63          H65   1.082       .  S
N66          N67   1.321       .  A
N66          C70   1.343       .  A
N67          C68   1.343       .  A
C68          C69   1.383       .  A
C68          H71   1.082       .  S
C69          C70   1.386       .  A
C69        C1105   1.477       .  S
C70          H72   1.082       .  S
N73          N74   1.323       .  A
N73          C77   1.347       .  A
N73         Cu81   2.087       .  S
N74          C75   1.341       .  A
N74         Cu80   2.063       .  S
C75          C76   1.381       .  A
C75          H78   1.082       .  S
C76          C77   1.389       .  A
C76        C1065   1.480   1_554  S
C77          H79   1.082       .  S
Cu80         N83   2.062       .  S
Cu81         N91   2.086       .  S
Cu82         N84   2.067       .  S
Cu82         N90   2.068       .  S
N83          N84   1.320       .  A
N83          C87   1.346       .  A
N84          C85   1.342       .  A
C85          C86   1.384       .  A
C85          H88   1.082       .  S
C86          C87   1.383       .  A
C87          H89   1.082       .  S
N90          N91   1.322       .  A
N90          C94   1.341       .  A
N91          C92   1.349       .  A
C92          C93   1.391       .  A
C92          H95   1.082       .  S
C93          C94   1.385       .  A
C93        C1073   1.486       .  S
C94          H96   1.081       .  S
N97          N98   1.321       .  A
N97         C101   1.347       .  A
N97        Cu105   2.082       .  S
N98          C99   1.342       .  A
N98        Cu104   2.060       .  S
C99         C100   1.383       .  A
C99         H102   1.082       .  S
C100        C101   1.388       .  A
C100       C1041   1.479       .  S
C101        H103   1.082       .  S
Cu104       N107   2.060       .  S
Cu105       N115   2.083       .  S
Cu106       N108   2.079       .  S
Cu106       N114   2.080       .  S
N107        N108   1.322       .  A
N107        C111   1.342       .  A
N108        C109   1.346       .  A
C109        C110   1.385       .  A
C109        H112   1.082       .  S
C110        C111   1.380       .  A
C110        C124   1.469       .  S
C111        H113   1.082       .  S
N114        N115   1.323       .  A
N114        C118   1.345       .  A
N115        C116   1.346       .  A
C116        C117   1.388       .  A
C116        H119   1.082       .  S
C117        C118   1.387       .  A
C117       C1129   1.486       .  S
C118        H120   1.082       .  S
N121        N122   1.321       .  A
N121        C125   1.344       .  A
N121       Cu129   2.069       .  S
N122        C123   1.344       .  A
N122       Cu128   2.062       .  S
C123        C124   1.382       .  A
C123        H126   1.082       .  S
C124        C125   1.384       .  A
C125        H127   1.082       .  S
Cu128       N131   2.063       .  S
Cu129       N139   2.069       .  S
Cu130       N132   2.073       .  S
Cu130       N138   2.073       .  S
N131        N132   1.322       .  A
N131        C135   1.342       .  A
N132        C133   1.345       .  A
C133        C134   1.384       .  A
C133        H136   1.082       .  S
C134        C135   1.380       .  A
C134        C158   1.467       .  S
C135        H137   1.082       .  S
N138        N139   1.322       .  A
N138        C142   1.346       .  A
N139        C140   1.342       .  A
C140        C141   1.382       .  A
C140        H143   1.082       .  S
C141        C142   1.383       .  A
C141        C182   1.469       .  S
C142        H144   1.082       .  S
N145        N146   1.322       .  A
N145        C149   1.346       .  A
N145       Cu153   2.081   1_554  S
N146        C147   1.344       .  A
N146       Cu152   2.075       .  S
C147        C148   1.388       .  A
C147        H150   1.081       .  S
C148        C149   1.390       .  A
C148       C1033   1.489       .  S
C149        H151   1.081       .  S
Cu152       N155   2.074       .  S
Cu153       N163   2.080       .  S
Cu154       N156   2.055       .  S
Cu154       N162   2.055       .  S
N155        N156   1.321   1_554  A
N155        C159   1.344       .  A
N156        C157   1.343       .  A
C157        C158   1.380   1_556  A
C157        H160   1.082       .  S
C158        C159   1.385       .  A
C159        H161   1.082       .  S
N162        N163   1.321       .  A
N162        C166   1.341       .  A
N163        C164   1.346       .  A
C164        C165   1.387       .  A
C164        H167   1.082       .  S
C165        C166   1.380       .  A
C165       C1017   1.474       .  S
C166        H168   1.082       .  S
N169        N170   1.324       .  A
N169        C173   1.349       .  A
N169       Cu177   2.099       .  S
N170        C171   1.342       .  A
N170       Cu176   2.067       .  S
C171        C172   1.382       .  A
C171        H174   1.082   1_565  S
C172        C173   1.391       .  A
C172       C1081   1.485   1_565  S
C173        H175   1.082       .  S
Cu176       N179   2.067       .  S
Cu177       N187   2.098       .  S
Cu178       N180   2.057       .  S
Cu178       N186   2.057       .  S
N179        N180   1.319       .  A
N179        C183   1.346   1_565  A
N180        C181   1.341       .  A
C181        C182   1.381   1_565  A
C181        H184   1.082       .  S
C182        C183   1.385       .  A
C183        H185   1.082       .  S
N186        N187   1.321       .  A
N186        C190   1.340       .  A
N187        C188   1.351       .  A
C188        C189   1.394       .  A
C188        H191   1.081       .  S
C189        C190   1.383       .  A
C189        C993   1.488       .  S
C190        H192   1.081       .  S
N193        N194   1.323       .  A
N193        C197   1.346       .  A
N193       Cu201   2.090       .  S
N194        C195   1.344       .  A
N194       Cu200   2.071       .  S
C195        C196   1.386       .  A
C195        H198   1.081       .  S
C196        C197   1.390       .  A
C196        C977   1.488       .  S
C197        H199   1.081       .  S
Cu200       N203   2.070       .  S
Cu201       N211   2.089       .  S
Cu202       N204   2.059       .  S
Cu202       N210   2.059       .  S
N203        N204   1.320       .  A
N203        C207   1.345       .  A
N204        C205   1.343       .  A
C205        C206   1.382       .  A
C205        H208   1.082       .  S
C206        C207   1.384       .  A
C206        C230   1.468       .  S
C207        H209   1.082       .  S
N210        N211   1.321       .  A
N210        C214   1.340       .  A
N211        C212   1.349       .  A
C212        C213   1.392       .  A
C212        H215   1.081       .  S
C213        C214   1.384       .  A
C213       C1057   1.487       .  S
C214        H216   1.081       .  S
N217        N218   1.322       .  A
N217        C221   1.344       .  A
N217       Cu225   2.066       .  S
N218        C219   1.344       .  A
N218       Cu224   2.072       .  S
C219        C220   1.383       .  A
C219        H222   1.082       .  S
C220        C221   1.381       .  A
C220        C278   1.469       .  S
C221        H223   1.082       .  S
Cu224       N227   2.072       .  S
Cu225       N235   2.064       .  S
Cu226       N228   2.068       .  S
Cu226       N234   2.068       .  S
N227        N228   1.322       .  A
N227        C231   1.345       .  A
N228        C229   1.343       .  A
C229        C230   1.382       .  A
C229        H232   1.082       .  S
C230        C231   1.383       .  A
C231        H233   1.082       .  S
N234        N235   1.321       .  A
N234        C238   1.344       .  A
N235        C236   1.343       .  A
C236        C237   1.382       .  A
C236        H239   1.082       .  S
C237        C238   1.384       .  A
C237        C254   1.468       .  S
C238        H240   1.082       .  S
N241        N242   1.321       .  A
N241        C245   1.344       .  A
N241       Cu249   2.068   1_545  S
N242        C243   1.343       .  A
N242       Cu248   2.068       .  S
C243        C244   1.384       .  A
C243        H246   1.082       .  S
C244        C245   1.384       .  A
C244        C961   1.476       .  S
C245        H247   1.082       .  S
Cu248       N251   2.068       .  S
Cu249       N259   2.068       .  S
Cu250       N252   2.071       .  S
Cu250       N258   2.071       .  S
N251        N252   1.322   1_545  A
N251        C255   1.344       .  A
N252        C253   1.344       .  A
C253        C254   1.383   1_565  A
C253        H256   1.082       .  S
C254        C255   1.382       .  A
C255        H257   1.082       .  S
N258        N259   1.321       .  A
N258        C262   1.344       .  A
N259        C260   1.344       .  A
C260        C261   1.385       .  A
C260        H263   1.082       .  S
C261        C262   1.386       .  A
C261        C953   1.479       .  S
C262        H264   1.082       .  S
N265        N266   1.322   1_655  A
N265        C269   1.342   1_655  A
N265       Cu273   2.069       .  S
N266        C267   1.344       .  A
N266       Cu272   2.072       .  S
C267        C268   1.386       .  A
C267        H270   1.082       .  S
C268        C269   1.385       .  A
C268       C1113   1.480       .  S
C269        H271   1.081   1_455  S
Cu272       N275   2.072       .  S
Cu273       N283   2.069       .  S
Cu274       N276   2.064       .  S
Cu274       N282   2.064       .  S
N275        N276   1.321   1_455  A
N275        C279   1.345       .  A
N276        C277   1.343       .  A
C277        C278   1.381   1_655  A
C277        H280   1.082       .  S
C278        C279   1.384       .  A
C279        H281   1.082       .  S
N282        N283   1.320       .  A
N282        C286   1.340       .  A
N283        C284   1.347       .  A
C284        C285   1.388       .  A
C284        H287   1.082       .  S
C285        C286   1.385       .  A
C285        C929   1.480       .  S
C286        H288   1.081       .  S
N289        N290   1.321       .  A
N289        C293   1.341       .  A
N289       Cu297   2.063       .  S
N290        C291   1.346       .  A
N290       Cu296   2.073       .  S
C291        C292   1.387       .  A
C291        H294   1.082       .  S
C292        C293   1.383       .  A
C292        C897   1.479       .  S
C293        H295   1.082       .  S
Cu296       N299   2.072       .  S
Cu297       N307   2.064       .  S
Cu298       N300   2.077       .  S
Cu298       N306   2.076       .  S
N299        N300   1.323       .  A
N299        C303   1.343       .  A
N300        C301   1.347       .  A
C301        C302   1.385       .  A
C301        H304   1.082       .  S
C302        C303   1.382       .  A
C302        C326   1.471       .  S
C303        H305   1.082       .  S
N306        N307   1.321       .  A
N306        C310   1.343       .  A
N307        C308   1.345       .  A
C308        C309   1.385       .  A
C308        H311   1.082       .  S
C309        C310   1.386       .  A
C309        C913   1.479       .  S
C310        H312   1.082       .  S
N313        N314   1.322       .  A
N313        C317   1.343       .  A
N313       Cu321   2.068       .  S
N314        C315   1.346       .  A
N314       Cu320   2.072       .  S
C315        C316   1.383       .  A
C315        H318   1.082       .  S
C316        C317   1.382       .  A
C316        C350   1.470       .  S
C317        H319   1.082       .  S
Cu320       N323   2.072       .  S
Cu321       N331   2.069       .  S
Cu322       N324   2.079       .  S
Cu322       N330   2.078       .  S
N323        N324   1.323       .  A
N323        C327   1.346       .  A
N324        C325   1.344       .  A
C325        C326   1.383       .  A
C325        H328   1.082       .  S
C326        C327   1.383       .  A
C327        H329   1.082       .  S
N330        N331   1.322       .  A
N330        C334   1.347       .  A
N331        C332   1.344       .  A
C332        C333   1.382       .  A
C332        H335   1.082       .  S
C333        C334   1.385       .  A
C333        C374   1.473       .  S
C334        H336   1.082       .  S
N337        N338   1.322       .  A
N337        C341   1.342       .  A
N337       Cu345   2.070       .  S
N338        C339   1.345       .  A
N338       Cu344   2.077       .  S
C339        C340   1.387       .  A
C339        H342   1.082       .  S
C340        C341   1.385       .  A
C340        C945   1.481       .  S
C341        H343   1.081       .  S
Cu344       N347   2.076       .  S
Cu345       N355   2.069       .  S
Cu346       N348   2.063       .  S
Cu346       N354   2.062       .  S
N347        N348   1.322       .  A
N347        C351   1.346       .  A
N348        C349   1.342       .  A
C349        C350   1.381       .  A
C349        H352   1.082       .  S
C350        C351   1.385       .  A
C351        H353   1.082       .  S
N354        N355   1.320       .  A
N354        C358   1.341       .  A
N355        C356   1.346       .  A
C356        C357   1.387       .  A
C356        H359   1.082       .  S
C357        C358   1.384       .  A
C357        C889   1.479       .  S
C358        H360   1.082       .  S
N361        N362   1.321       .  A
N361        C365   1.347       .  A
N361       Cu369   2.087       .  S
N362        C363   1.344       .  A
N362       Cu368   2.069       .  S
C363        C364   1.386       .  A
C363        H366   1.081       .  S
C364        C365   1.391       .  A
C364        C873   1.489   1_455  S
C365        H367   1.081   1_455  S
Cu368       N371   2.070       .  S
Cu369       N379   2.087       .  S
Cu370       N372   2.076       .  S
Cu370       N378   2.077       .  S
N371        N372   1.322       .  A
N371        C375   1.344       .  A
N372        C373   1.346       .  A
C373        C374   1.384       .  A
C373        H376   1.082       .  S
C374        C375   1.383       .  A
C375        H377   1.082       .  S
N378        N379   1.323       .  A
N378        C382   1.345       .  A
N379        C380   1.347       .  A
C380        C381   1.388       .  A
C380        H383   1.082       .  S
C381        C382   1.385       .  A
C381        C985   1.484       .  S
C382        H384   1.082       .  S
N385        N386   1.320       .  A
N385        C389   1.342       .  A
N385       Cu393   2.070       .  S
N386        C387   1.344       .  A
N386       Cu392   2.070       .  S
C387        C388   1.388       .  A
C387        H390   1.081       .  S
C388        C389   1.389       .  A
C388        C937   1.486       .  S
C389        H391   1.081       .  S
Cu392       N395   2.070       .  S
Cu393       N403   2.070       .  S
Cu394       N396   2.078       .  S
Cu394       N402   2.077       .  S
N395        N396   1.323       .  A
N395        C399   1.346       .  A
N396        C397   1.343       .  A
C397        C398   1.384       .  A
C397        H400   1.082       .  S
C398        C399   1.382       .  A
C398        C422   1.471       .  S
C399        H401   1.082       .  S
N402        N403   1.321       .  A
N402        C406   1.346       .  A
N403        C404   1.344       .  A
C404        C405   1.385       .  A
C404        H407   1.082       .  S
C405        C406   1.387       .  A
C405        C849   1.480       .  S
C406        H408   1.082       .  S
N409        N410   1.323       .  A
N409        C413   1.343       .  A
N409       Cu417   2.055       .  S
N410        C411   1.346       .  A
N410       Cu416   2.087       .  S
C411        C412   1.386       .  A
C411        H414   1.082       .  S
C412        C413   1.378       .  A
C412        C470   1.469       .  S
C413        H415   1.082       .  S
Cu416       N419   2.088       .  S
Cu417       N427   2.055       .  S
Cu418       N420   2.062       .  S
Cu418       N426   2.062       .  S
N419        N420   1.323       .  A
N419        C423   1.348       .  A
N420        C421   1.341       .  A
C421        C422   1.379       .  A
C421        H424   1.082       .  S
C422        C423   1.387       .  A
C423        H425   1.082       .  S
N426        N427   1.320       .  A
N426        C430   1.344       .  A
N427        C428   1.342       .  A
C428        C429   1.380       .  A
C428        H431   1.082       .  S
C429        C430   1.383       .  A
C429        C446   1.466       .  S
C430        H432   1.082       .  S
N433        N434   1.319       .  A
N433        C437   1.346       .  A
N433       Cu441   2.072       .  S
N434        C435   1.340       .  A
N434       Cu440   2.058       .  S
C435        C436   1.385       .  A
C435        H438   1.081       .  S
C436        C437   1.389       .  A
C436       C1009   1.483       .  S
C437        H439   1.081       .  S
Cu440       N443   2.058       .  S
Cu441       N451   2.073       .  S
Cu442       N444   2.069       .  S
Cu442       N450   2.071       .  S
N443        N444   1.321       .  A
N443        C447   1.343       .  A
N444        C445   1.344       .  A
C445        C446   1.383       .  A
C445        H448   1.082       .  S
C446        C447   1.380       .  A
C447        H449   1.082       .  S
N450        N451   1.322       .  A
N450        C454   1.344       .  A
N451        C452   1.343       .  A
C452        C453   1.387       .  A
C452        H455   1.081       .  S
C453        C454   1.387       .  A
C453        C969   1.484       .  S
C454        H456   1.081       .  S
N457        N458   1.323       .  A
N457        C461   1.344       .  A
N457       Cu465   2.075       .  S
N458        C459   1.347       .  A
N458       Cu464   2.088       .  S
C459        C460   1.389       .  A
C459        H462   1.082       .  S
C460        C461   1.386       .  A
C460        C841   1.486       .  S
C461        H463   1.082       .  S
Cu464       N467   2.087       .  S
Cu465       N475   2.075       .  S
Cu466       N468   2.056       .  S
Cu466       N474   2.056       .  S
N467        N468   1.322       .  A
N467        C471   1.347       .  A
N468        C469   1.342       .  A
C469        C470   1.378       .  A
C469        H472   1.082       .  S
C470        C471   1.387       .  A
C471        H473   1.082       .  S
N474        N475   1.320       .  A
N474        C478   1.342       .  A
N475        C476   1.345       .  A
C476        C477   1.388       .  A
C476        H479   1.082       .  S
C477        C478   1.384       .  A
C477       C1049   1.480       .  S
C478        H480   1.082       .  S
N481        N482   1.322       .  A
N481        C485   1.351       .  A
N481       Cu489   2.102       .  S
N482        C483   1.341       .  A
N482       Cu488   2.059       .  S
C483        C484   1.383       .  A
C483        H486   1.081       .  S
C484        C485   1.394       .  A
C484        C817   1.489       .  S
C485        H487   1.081       .  S
Cu488       N491   2.058       .  S
Cu489       N499   2.103       .  S
Cu490       N492   2.063       .  S
Cu490       N498   2.064       .  S
N491        N492   1.319       .  A
N491        C495   1.342       .  A
N492        C493   1.344       .  A
C493        C494   1.384       .  A
C493        H496   1.082       .  S
C494        C495   1.382       .  A
C494        C525   1.467       .  S
C495        H497   1.082       .  S
N498        N499   1.323       .  A
N498        C502   1.340       .  A
N499        C500   1.351       .  A
C500        C501   1.394       .  A
C500        H503   1.081       .  S
C501        C502   1.383       .  A
C501        C865   1.489       .  S
C502        H504   1.081       .  S
N505        N506   1.321       .  A
N505        C509   1.344       .  A
N505       Cu513   2.060       .  S
N506        C507   1.342       .  A
N506       Cu512   2.066       .  S
C507        C508   1.381       .  A
C507        H510   1.082       .  S
C508        C509   1.381       .  A
C508        C566   1.464       .  S
C509        H511   1.082       .  S
Cu512       N515   2.066       .  S
Cu513       N523   2.061       .  S
Cu514       N516   2.072       .  S
Cu514       N522   2.072       .  S
N515        N516   1.322       .  A
N515        C519   1.343       .  A
N516        C517   1.345       .  A
C517        C518   1.383       .  A
C517        H520   1.082       .  S
C518        C519   1.382       .  A
C518        C542   1.470       .  S
C519        H521   1.082       .  S
N522        N523   1.322       .  A
N522        C526   1.343       .  A
N523        C524   1.343       .  A
C524        C525   1.381       .  A
C524        H527   1.082       .  S
C525        C526   1.383       .  A
C526        H528   1.082       .  S
N529        N530   1.321       .  A
N529        C533   1.346       .  A
N529       Cu537   2.076       .  S
N530        C531   1.341       .  A
N530       Cu536   2.058       .  S
C531        C532   1.383       .  A
C531        H534   1.082       .  S
C532        C533   1.388       .  A
C532        C921   1.480       .  S
C533        H535   1.082       .  S
Cu536       N539   2.059       .  S
Cu537       N547   2.077       .  S
Cu538       N540   2.077       .  S
Cu538       N546   2.078       .  S
N539        N540   1.321       .  A
N539        C543   1.343       .  A
N540        C541   1.346       .  A
C541        C542   1.385       .  A
C541        H544   1.082       .  S
C542        C543   1.381       .  A
C543        H545   1.082       .  S
N546        N547   1.322       .  A
N546        C550   1.345       .  A
N547        C548   1.345       .  A
C548        C549   1.388       .  A
C548        H551   1.081       .  S
C549        C550   1.388       .  A
C549        C833   1.487       .  S
C550        H552   1.081       .  S
N553        N554   1.321       .  A
N553        C557   1.344       .  A
N553       Cu561   2.066       .  S
N554        C555   1.343       .  A
N554       Cu560   2.071       .  S
C555        C556   1.386       .  A
C555        H558   1.082       .  S
C556        C557   1.386       .  A
C556        C857   1.480       .  S
C557        H559   1.082       .  S
Cu560       N563   2.070       .  S
Cu561       N571   2.066       .  S
Cu562       N564   2.057       .  S
Cu562       N570   2.057       .  S
N563        N564   1.322       .  A
N563        C567   1.345       .  A
N564        C565   1.341       .  A
C565        C566   1.379       .  A
C565        H568   1.082       .  S
C566        C567   1.383       .  A
C567        H569   1.082       .  S
N570        N571   1.320       .  A
N570        C574   1.342       .  A
N571        C572   1.342       .  A
C572        C573   1.385       .  A
C572        H575   1.082       .  S
C573        C574   1.384       .  A
C573        C801   1.475       .  S
C574        H576   1.082       .  S
N577        N578   1.324       .  A
N577        C581   1.348       .  A
N577       Cu585   2.097       .  S
N578        C579   1.342       .  A
N578       Cu584   2.067       .  S
C579        C580   1.383       .  A
C579        H582   1.082       .  S
C580        C581   1.391       .  A
C580       C1001   1.486       .  S
C581        H583   1.081       .  S
Cu584       N587   2.067       .  S
Cu585       N595   2.096       .  S
Cu586       N588   2.052       .  S
Cu586       N594   2.053       .  S
N587        N588   1.319       .  A
N587        C591   1.346       .  A
N588        C589   1.340       .  A
C589        C590   1.380       .  A
C589        H592   1.082       .  S
C590        C591   1.385       .  A
C590        C604   1.467       .  S
C591        H593   1.082       .  S
N594        N595   1.321       .  A
N594        C598   1.339       .  A
N595        C596   1.351       .  A
C596        C597   1.393       .  A
C596        H599   1.082       .  S
C597        C598   1.381       .  A
C597        C825   1.483       .  S
C598        H600   1.082       .  S
N601        N602   1.323       .  A
N601        C605   1.345       .  A
N601       Cu609   2.068       .  S
N602        C603   1.341       .  A
N602       Cu608   2.067       .  S
C603        C604   1.381       .  A
C603        H606   1.082       .  S
C604        C605   1.382       .  A
C605        H607   1.082       .  S
Cu608       N611   2.066       .  S
Cu609       N619   2.067       .  S
Cu610       N612   2.064       .  S
Cu610       N618   2.065       .  S
N611        N612   1.321       .  A
N611        C615   1.345       .  A
N612        C613   1.341       .  A
C613        C614   1.381       .  A
C613        H616   1.082       .  S
C614        C615   1.383       .  A
C614        C638   1.467       .  S
C615        H617   1.082       .  S
N618        N619   1.321       .  A
N618        C622   1.343       .  A
N619        C620   1.344       .  A
C620        C621   1.382       .  A
C620        H623   1.082       .  S
C621        C622   1.382       .  A
C621        C662   1.467       .  S
C622        H624   1.082       .  S
N625        N626   1.322       .  A
N625        C629   1.346       .  A
N625       Cu633   2.085       .  S
N626        C627   1.342       .  A
N626       Cu632   2.064       .  S
C627        C628   1.384       .  A
C627        H630   1.082       .  S
C628        C629   1.389       .  A
C628        C785   1.482       .  S
C629        H631   1.081       .  S
Cu632       N635   2.064       .  S
Cu633       N643   2.086       .  S
Cu634       N636   2.063       .  S
Cu634       N642   2.064       .  S
N635        N636   1.321       .  A
N635        C639   1.345       .  A
N636        C637   1.341       .  A
C637        C638   1.381       .  A
C637        H640   1.082       .  S
C638        C639   1.383       .  A
C639        H641   1.082       .  S
N642        N643   1.322       .  A
N642        C646   1.344       .  A
N643        C644   1.346       .  A
C644        C645   1.388       .  A
C644        H647   1.082       .  S
C645        C646   1.383       .  A
C645       C1025   1.480       .  S
C646        H648   1.082       .  S
N649        N650   1.320       .  A
N649        C653   1.344       .  A
N649       Cu657   2.065       .  S
N650        C651   1.340       .  A
N650       Cu656   2.062       .  S
C651        C652   1.385       .  A
C651        H654   1.081       .  S
C652        C653   1.387       .  A
C652        C809   1.480   1_554  S
C653        H655   1.081       .  S
Cu656       N659   2.062       .  S
Cu657       N667   2.065       .  S
Cu658       N660   2.067       .  S
Cu658       N666   2.068       .  S
N659        N660   1.321       .  A
N659        C663   1.343       .  A
N660        C661   1.345       .  A
C661        C662   1.383       .  A
C661        H664   1.082       .  S
C662        C663   1.382       .  A
C663        H665   1.082       .  S
N666        N667   1.322       .  A
N666        C670   1.341       .  A
N667        C668   1.344       .  A
C668        C669   1.385       .  A
C668        H671   1.082       .  S
C669        C670   1.385       .  A
C669        C777   1.478       .  S
C670        H672   1.081       .  S
N673        N674   1.321       .  A
N673        C677   1.341       .  A
N673       Cu681   2.060       .  S
N674        C675   1.345       .  A
N674       Cu680   2.065       .  S
C675        C676   1.384       .  A
C675        H678   1.082       .  S
C676        C677   1.382       .  A
C676        C769   1.473       .  S
C677        H679   1.082       .  S
Cu680       N683   2.065       .  S
Cu681       N691   2.061       .  S
Cu682       N684   2.071       .  S
Cu682       N690   2.070       .  S
N683        N684   1.322       .  A
N683        C687   1.342       .  A
N684        C685   1.345       .  A
C685        C686   1.383       .  A
C685        H688   1.082       .  S
C686        C687   1.381       .  A
C686        C710   1.467       .  S
C687        H689   1.082       .  S
N690        N691   1.321       .  A
N690        C694   1.343       .  A
N691        C692   1.343       .  A
C692        C693   1.384       .  A
C692        H695   1.082       .  S
C693        C694   1.385       .  A
C693       C1089   1.476       .  S
C694        H696   1.082       .  S
N697        N698   1.322       .  A
N697        C701   1.346       .  A
N697       Cu705   2.074       .  S
N698        C699   1.342       .  A
N698       Cu704   2.064       .  S
C699        C700   1.381       .  A
C699        H702   1.082       .  S
C700        C701   1.383       .  A
C700        C734   1.468       .  S
C701        H703   1.082       .  S
Cu704       N707   2.064       .  S
Cu705       N715   2.075       .  S
Cu706       N708   2.066       .  S
Cu706       N714   2.066       .  S
N707        N708   1.321       .  A
N707        C711   1.345       .  A
N708        C709   1.342       .  A
C709        C710   1.382       .  A
C709        H712   1.082       .  S
C710        C711   1.382       .  A
C711        H713   1.082       .  S
N714        N715   1.322       .  A
N714        C718   1.345       .  A
N715        C716   1.344       .  A
C716        C717   1.384       .  A
C716        H719   1.082       .  S
C717        C718   1.382       .  A
C717        C758   1.471       .  S
C718        H720   1.082       .  S
N721        N722   1.320       .  A
N721        C725   1.342       .  A
N721       Cu729   2.067       .  S
N722        C723   1.345   1_655  A
N722       Cu728   2.064       .  S
C723        C724   1.387       .  A
C723        H726   1.081       .  S
C724        C725   1.387   1_455  A
C724        C881   1.483       .  S
C725        H727   1.081       .  S
Cu728       N731   2.064       .  S
Cu729       N739   2.068       .  S
Cu730       N732   2.071       .  S
Cu730       N738   2.071       .  S
N731        N732   1.322       .  A
N731        C735   1.341   1_655  A
N732        C733   1.346       .  A
C733        C734   1.384   1_655  A
C733        H736   1.082       .  S
C734        C735   1.380       .  A
C735        H737   1.082       .  S
N738        N739   1.321       .  A
N738        C742   1.343       .  A
N739        C740   1.344       .  A
C740        C741   1.387       .  A
C740        H743   1.081       .  S
C741        C742   1.387       .  A
C741        C793   1.483       .  S
C742        H744   1.081       .  S
N745        N746   1.320       .  A
N745        C749   1.344       .  A
N745       Cu753   2.066       .  S
N746        C747   1.343   1_556  A
N746       Cu752   2.060       .  S
C747        C748   1.383       .  A
C747        H750   1.082       .  S
C748        C749   1.386   1_554  A
C748       C1145   1.476       .  S
C749        H751   1.082       .  S
Cu752       N755   2.060       .  S
Cu753       N763   2.067       .  S
Cu754       N756   2.085       .  S
Cu754       N762   2.086       .  S
N755        N756   1.322       .  A
N755        C759   1.342   1_556  A
N756        C757   1.348       .  A
C757        C758   1.386   1_556  A
C757        H760   1.082       .  S
C758        C759   1.379       .  A
C759        H761   1.082       .  S
N762        N763   1.322       .  A
N762        C766   1.346       .  A
N763        C764   1.343       .  A
C764        C765   1.386       .  A
C764        H767   1.081       .  S
C765        C766   1.391       .  A
C765        C905   1.487       .  S
C766        H768   1.081       .  S
C769        C770   1.404       .  A
C769        C774   1.404       .  A
C770        C771   1.393       .  A
C770        H779   1.083       .  S
C771        C772   1.400       .  A
C771        H780   1.084       .  S
C772        C778   1.398       .  A
C772        C773   1.413       .  A
C773        C775   1.402       .  A
C773        C774   1.403       .  A
C774        H781   1.084       .  S
C775        C776   1.398       .  A
C775        H782   1.083       .  S
C776        C777   1.406       .  A
C776        H783   1.082       .  S
C777        C778   1.404       .  A
C778        H784   1.083       .  S
C785        C786   1.406       .  A
C785        C790   1.408       .  A
C786        C787   1.397       .  A
C786        H795   1.082       .  S
C787        C788   1.401       .  A
C787        H796   1.084       .  S
C788        C794   1.402       .  A
C788        C789   1.412       .  A
C789        C791   1.402       .  A
C789        C790   1.403       .  A
C790        H797   1.083       .  S
C791        C792   1.397       .  A
C791        H798   1.084       .  S
C792        C793   1.407       .  A
C792        H799   1.082       .  S
C793        C794   1.407       .  A
C794        H800   1.083       .  S
C801        C802   1.404       .  A
C801        C806   1.405       .  A
C802        C803   1.394       .  A
C802        H811   1.082       .  S
C803        C804   1.400       .  A
C803        H812   1.084       .  S
C804        C810   1.399       .  A
C804        C805   1.412       .  A
C805        C807   1.401       .  A
C805        C806   1.401       .  A
C806        H813   1.084       .  S
C807        C808   1.397       .  A
C807        H814   1.084       .  S
C808        C809   1.406       .  A
C808        H815   1.082       .  S
C809        C810   1.406       .  A
C810        H816   1.082   1_556  S
C817        C818   1.409       .  A
C817        C822   1.406       .  A
C818        C819   1.397       .  A
C818        H827   1.081       .  S
C819        C820   1.400       .  A
C819        H828   1.084       .  S
C820        C826   1.407       .  A
C820        C821   1.415       .  A
C821        C823   1.400       .  A
C821        C822   1.407       .  A
C822        H829   1.083       .  S
C823        C824   1.397       .  A
C823        H830   1.084       .  S
C824        C825   1.407       .  A
C824        H831   1.082       .  S
C825        C826   1.405       .  A
C826        H832   1.084       .  S
C833        C834   1.407       .  A
C833        C838   1.408       .  A
C834        C835   1.398       .  A
C834        H843   1.081       .  S
C835        C836   1.401       .  A
C835        H844   1.084       .  S
C836        C842   1.406       .  A
C836        C837   1.413       .  A
C837        C839   1.401       .  A
C837        C838   1.405       .  A
C838        H845   1.084       .  S
C839        C840   1.397       .  A
C839        H846   1.084       .  S
C840        C841   1.408   1_565  A
C840        H847   1.081       .  S
C841        C842   1.407   1_545  A
C842        H848   1.084   1_565  S
C849        C850   1.406       .  A
C849        C854   1.406       .  A
C850        C851   1.396       .  A
C850        H859   1.082       .  S
C851        C852   1.401       .  A
C851        H860   1.084       .  S
C852        C858   1.402       .  A
C852        C853   1.414       .  A
C853        C855   1.402       .  A
C853        C854   1.404       .  A
C854        H861   1.084       .  S
C855        C856   1.397       .  A
C855        H862   1.084       .  S
C856        C857   1.406       .  A
C856        H863   1.082       .  S
C857        C858   1.405       .  A
C858        H864   1.084       .  S
C865        C866   1.406       .  A
C865        C870   1.410       .  A
C866        C867   1.401       .  A
C866        H875   1.082       .  S
C867        C868   1.404       .  A
C867        H876   1.083       .  S
C868        C874   1.407       .  A
C868        C869   1.411       .  A
C869        C871   1.402       .  A
C869        C870   1.403       .  A
C870        H877   1.082       .  S
C871        C872   1.397       .  A
C871        H878   1.084       .  S
C872        C873   1.406       .  A
C872        H879   1.081       .  S
C873        C874   1.411       .  A
C874        H880   1.083       .  S
C881        C882   1.407       .  A
C881        C886   1.406       .  A
C882        C883   1.399       .  A
C882        H891   1.082       .  S
C883        C884   1.402       .  A
C883        H892   1.084       .  S
C884        C890   1.405       .  A
C884        C885   1.413       .  A
C885        C887   1.400       .  A
C885        C886   1.400       .  A
C886        H893   1.082       .  S
C887        C888   1.394       .  A
C887        H894   1.084       .  S
C888        C889   1.405       .  A
C888        H895   1.083       .  S
C889        C890   1.407       .  A
C890        H896   1.083       .  S
C897        C898   1.406       .  A
C897        C902   1.405       .  A
C898        C899   1.395       .  A
C898        H907   1.082       .  S
C899        C900   1.400       .  A
C899        H908   1.084       .  S
C900        C906   1.403       .  A
C900        C901   1.414       .  A
C901        C903   1.400       .  A
C901        C902   1.405       .  A
C902        H909   1.084       .  S
C903        C904   1.397       .  A
C903        H910   1.084       .  S
C904        C905   1.409       .  A
C904        H911   1.081       .  S
C905        C906   1.407       .  A
C906        H912   1.082       .  S
C913        C914   1.406       .  A
C913        C918   1.405       .  A
C914        C915   1.397       .  A
C914        H923   1.082       .  S
C915        C916   1.402       .  A
C915        H924   1.084       .  S
C916        C922   1.402       .  A
C916        C917   1.413       .  A
C917        C919   1.402       .  A
C917        C918   1.401       .  A
C918        H925   1.084       .  S
C919        C920   1.397       .  A
C919        H926   1.084       .  S
C920        C921   1.405       .  A
C920        H927   1.082       .  S
C921        C922   1.407       .  A
C922        H928   1.084       .  S
C929        C930   1.406       .  A
C929        C934   1.405       .  A
C930        C931   1.400       .  A
C930        H939   1.082       .  S
C931        C932   1.404       .  A
C931        H940   1.084       .  S
C932        C938   1.405       .  A
C932        C933   1.412       .  A
C933        C935   1.399       .  A
C933        C934   1.399       .  A
C934        H941   1.083       .  S
C935        C936   1.394       .  A
C935        H942   1.084       .  S
C936        C937   1.407       .  A
C936        H943   1.081       .  S
C937        C938   1.410       .  A
C938        H944   1.082       .  S
C945        C946   1.407       .  A
C945        C950   1.407       .  A
C946        C947   1.394       .  A
C946        H955   1.081       .  S
C947        C948   1.399       .  A
C947        H956   1.084       .  S
C948        C954   1.401       .  A
C948        C949   1.414       .  A
C949        C951   1.402       .  A
C949        C950   1.404       .  A
C950        H957   1.084       .  S
C951        C952   1.398       .  A
C951        H958   1.084       .  S
C952        C953   1.406       .  A
C952        H959   1.082       .  S
C953        C954   1.404       .  A
C954        H960   1.084       .  S
C961        C962   1.405       .  A
C961        C966   1.404       .  A
C962        C963   1.397       .  A
C962        H971   1.083       .  S
C963        C964   1.402       .  A
C963        H972   1.083       .  S
C964        C970   1.403       .  A
C964        C965   1.413       .  A
C965        C967   1.400       .  A
C965        C966   1.402       .  A
C966        H973   1.084       .  S
C967        C968   1.395       .  A
C967        H974   1.083       .  S
C968        C969   1.407       .  A
C968        H975   1.081       .  S
C969        C970   1.408       .  A
C970        H976   1.082       .  S
C977        C978   1.407       .  A
C977        C982   1.410       .  A
C978        C979   1.397       .  A
C978        H987   1.081       .  S
C979        C980   1.401       .  A
C979        H988   1.084       .  S
C980        C986   1.405       .  A
C980        C981   1.413       .  A
C981        C983   1.403       .  A
C981        C982   1.406       .  A
C982        H989   1.083       .  S
C983        C984   1.399       .  A
C983        H990   1.084       .  S
C984        C985   1.406       .  A
C984        H991   1.082       .  S
C985        C986   1.407       .  A
C986        H992   1.084       .  S
C993        C994   1.409       .  A
C993        C998   1.407       .  A
C994        C995   1.395       .  A
C994       H1003   1.081       .  S
C995        C996   1.399       .  A
C995       H1004   1.084       .  S
C996       C1002   1.405       .  A
C996        C997   1.414       .  A
C997        C999   1.401       .  A
C997        C998   1.408       .  A
C998       H1005   1.083       .  S
C999       C1000   1.398       .  A
C999       H1006   1.084       .  S
C1000      C1001   1.408       .  A
C1000      H1007   1.082       .  S
C1001      C1002   1.406       .  A
C1002      H1008   1.083       .  S
C1009      C1010   1.406       .  A
C1009      C1014   1.407       .  A
C1010      C1011   1.398       .  A
C1010      H1019   1.082       .  S
C1011      C1012   1.402       .  A
C1011      H1020   1.084       .  S
C1012      C1018   1.402       .  A
C1012      C1013   1.412       .  A
C1013      C1015   1.402       .  A
C1013      C1014   1.400       .  A
C1014      H1021   1.082       .  S
C1015      C1016   1.396       .  A
C1015      H1022   1.084       .  S
C1016      C1017   1.403       .  A
C1016      H1023   1.083       .  S
C1017      C1018   1.406       .  A
C1018      H1024   1.084       .  S
C1025      C1026   1.404       .  A
C1025      C1030   1.407       .  A
C1026      C1027   1.397       .  A
C1026      H1035   1.082       .  S
C1027      C1028   1.402       .  A
C1027      H1036   1.084       .  S
C1028      C1034   1.404       .  A
C1028      C1029   1.413       .  A
C1029      C1031   1.402       .  A
C1029      C1030   1.406       .  A
C1030      H1037   1.084       .  S
C1031      C1032   1.399       .  A
C1031      H1038   1.084       .  S
C1032      C1033   1.408       .  A
C1032      H1039   1.081       .  S
C1033      C1034   1.408       .  A
C1034      H1040   1.083       .  S
C1041      C1042   1.405       .  A
C1041      C1046   1.406       .  A
C1042      C1043   1.398       .  A
C1042      H1051   1.082       .  S
C1043      C1044   1.402       .  A
C1043      H1052   1.084       .  S
C1044      C1050   1.403       .  A
C1044      C1045   1.413       .  A
C1045      C1047   1.402       .  A
C1045      C1046   1.403       .  A
C1046      H1053   1.084       .  S
C1047      C1048   1.397       .  A
C1047      H1054   1.084       .  S
C1048      C1049   1.405       .  A
C1048      H1055   1.082       .  S
C1049      C1050   1.407       .  A
C1050      H1056   1.083       .  S
C1057      C1058   1.406       .  A
C1057      C1062   1.409       .  A
C1058      C1059   1.400       .  A
C1058      H1067   1.082       .  S
C1059      C1060   1.403       .  A
C1059      H1068   1.084       .  S
C1060      C1066   1.404       .  A
C1060      C1061   1.411       .  A
C1061      C1063   1.402       .  A
C1061      C1062   1.401       .  A
C1062      H1069   1.082       .  S
C1063      C1064   1.397       .  A
C1063      H1070   1.084       .  S
C1064      C1065   1.404       .  A
C1064      H1071   1.082       .  S
C1065      C1066   1.408       .  A
C1066      H1072   1.084       .  S
C1073      C1074   1.408       .  A
C1073      C1078   1.407       .  A
C1074      C1075   1.396       .  A
C1074      H1083   1.082       .  S
C1075      C1076   1.399       .  A
C1075      H1084   1.084       .  S
C1076      C1082   1.405       .  A
C1076      C1077   1.414       .  A
C1077      C1079   1.401       .  A
C1077      C1078   1.407       .  A
C1078      H1085   1.083       .  S
C1079      C1080   1.398       .  A
C1079      H1086   1.084       .  S
C1080      C1081   1.407       .  A
C1080      H1087   1.082       .  S
C1081      C1082   1.405       .  A
C1082      H1088   1.083       .  S
C1089      C1090   1.405       .  A
C1089      C1094   1.404       .  A
C1090      C1091   1.396       .  A
C1090      H1099   1.082       .  S
C1091      C1092   1.402       .  A
C1091      H1100   1.084       .  S
C1092      C1098   1.402       .  A
C1092      C1093   1.413       .  A
C1093      C1095   1.400       .  A
C1093      C1094   1.401       .  A
C1094      H1101   1.084       .  S
C1095      C1096   1.396       .  A
C1095      H1102   1.084       .  S
C1096      C1097   1.408       .  A
C1096      H1103   1.081       .  S
C1097      C1098   1.407       .  A
C1098      H1104   1.083       .  S
C1105      C1106   1.406       .  A
C1105      C1110   1.403       .  A
C1106      C1107   1.397       .  A
C1106      H1115   1.082       .  S
C1107      C1108   1.402       .  A
C1107      H1116   1.084       .  S
C1108      C1114   1.403       .  A
C1108      C1109   1.413       .  A
C1109      C1111   1.399       .  A
C1109      C1110   1.400       .  A
C1110      H1117   1.084       .  S
C1111      C1112   1.394       .  A
C1111      H1118   1.084       .  S
C1112      C1113   1.406       .  A
C1112      H1119   1.081       .  S
C1113      C1114   1.406       .  A
C1114      H1120   1.083       .  S
C1121      C1122   1.405       .  A
C1121      C1126   1.407       .  A
C1122      C1123   1.397       .  A
C1122      H1131   1.083       .  S
C1123      C1124   1.402       .  A
C1123      H1132   1.084       .  S
C1124      C1130   1.405       .  A
C1124      C1125   1.413       .  A
C1125      C1127   1.403       .  A
C1125      C1126   1.407       .  A
C1126      H1133   1.084       .  S
C1127      C1128   1.400       .  A
C1127      H1134   1.084       .  S
C1128      C1129   1.407       .  A
C1128      H1135   1.082       .  S
C1129      C1130   1.407       .  A
C1130      H1136   1.083       .  S
C1137      C1138   1.407       .  A
C1137      C1142   1.406       .  A
C1138      C1139   1.399       .  A
C1138      H1147   1.082       .  S
C1139      C1140   1.402       .  A
C1139      H1148   1.083       .  S
C1140      C1146   1.403       .  A
C1140      C1141   1.412       .  A
C1141      C1143   1.401       .  A
C1141      C1142   1.401       .  A
C1142      H1149   1.082       .  S
C1143      C1144   1.395       .  A
C1143      H1150   1.083       .  S
C1144      C1145   1.404       .  A
C1144      H1151   1.083       .  S
C1145      C1146   1.406       .  A
C1146      H1152   1.084       .  S
