geometry optimzed in LAMMPS
_audit_creation_date              2020-11-30 
_audit_creation_method            'lammps2cif' 
_symmetry_space_group_name_H-M    'P1' 
_symmetry_Int_Tables_number       1 
_symmetry_cell_setting            triclinic 
loop_ 
_symmetry_equiv_pos_as_xyz 
  x,y,z 
_cell_length_a                    101.46746858 
_cell_length_b                    101.35465832701512 
_cell_length_c                    101.05858351950172 
_cell_angle_alpha                 90.0251604849361 
_cell_angle_beta                  89.7854718294485 
_cell_angle_gamma                 89.90557920171331 
loop_ 
_atom_site_label 
_atom_site_type_symbol 
_atom_site_fract_x 
_atom_site_fract_y 
_atom_site_fract_z 
_atom_site_charge 
N1          N  0.15750994  0.47139614  0.07168850    -0.27300
N2          N  0.16736833  0.46386088  0.06759821    -0.35200
C3          C  0.17222844  0.45705147  0.07785954     0.01000
C4          C  0.16528215  0.46042445  0.08915894     0.07100
C5          C  0.15597991  0.46959772  0.08486996    -0.06000
H6          H  0.18093808  0.45090413  0.07728933     0.07700
H7          H  0.14895879  0.47491354  0.09094624     0.08900
Cu8        Cu  0.17640844  0.46522223  0.04932328     0.44200
Cu9        Cu  0.14768636  0.48447065  0.05884454     0.42000
Cu10       Cu  0.16693022  0.49183124  0.02885417     0.43900
N11         N  0.18855372  0.47257366  0.03466477    -0.34700
N12         N  0.18544702  0.48307540  0.02760110    -0.28900
C13         C  0.19619758  0.48708076  0.02086261    -0.05000
C14         C  0.20650962  0.47857468  0.02377228     0.07200
C15         C  0.20126430  0.46947153  0.03250650     0.01000
H16         H  0.19660583  0.49579615  0.01469952     0.08600
H17         H  0.20656967  0.46182646  0.03773820     0.07700
N18         N  0.14772775  0.49835075  0.03213991    -0.36100
N19         N  0.14071412  0.49595841  0.04294862    -0.28300
C20         C  0.12864517  0.50139718  0.04144608    -0.03500
C21         C  0.12799049  0.50738024  0.02906988     0.05100
C22         C  0.14032216  0.50520992  0.02352519     0.03200
H23         H  0.12075562  0.50060563  0.04862818     0.08300
H24         H  0.14368271  0.50825418  0.01382879     0.07100
N25         N  0.35113894  0.47783634  0.95071361    -0.27300
N26         N  0.34099716  0.47072338  0.95472037    -0.35200
C27         C  0.33613518  0.46386092  0.94449178     0.01000
C28         C  0.34348178  0.46673190  0.93329624     0.07100
C29         C  0.35296346  0.47567605  0.93764205    -0.06000
H30         H  0.32733011  0.45788658  0.94505352     0.07700
H31         H  0.36040199  0.48051892  0.93169731     0.08900
Cu32       Cu  0.33238005  0.47263595  0.97307846     0.44200
Cu33       Cu  0.36087686  0.49066455  0.96372186     0.42000
Cu34       Cu  0.34141128  0.49990544  0.99349919     0.43900
N35         N  0.32055471  0.47975153  0.98804643    -0.34700
N36         N  0.32323099  0.49037345  0.99510703    -0.28900
C37         C  0.31255683  0.49339667  0.00253389    -0.05000
C38         C  0.30279001  0.48411075  0.00002739     0.07200
C39         C  0.30829651  0.47565516  0.99079787     0.01000
H40         H  0.31189389  0.50181126  0.00909166     0.08600
H41         H  0.30348714  0.46755539  0.98579865     0.07700
N42         N  0.36105763  0.50522867  0.99020821    -0.36100
N43         N  0.36804442  0.50188366  0.97962656    -0.28300
C44         C  0.38046190  0.50632153  0.98114602    -0.03500
C45         C  0.38144928  0.51276018  0.99326408     0.05100
C46         C  0.36887593  0.51183757  0.99867579     0.03200
H47         H  0.38827693  0.50464152  0.97403911     0.08300
H48         H  0.36560817  0.51554850  0.00817034     0.07100
N49         N  0.20865127  0.62501313  0.32564447    -0.27300
N50         N  0.20619094  0.61245788  0.32318238    -0.35200
C51         C  0.19874187  0.60743804  0.33295214     0.01000
C52         C  0.19641543  0.61721267  0.34222321     0.07100
C53         C  0.20291146  0.62826250  0.33727859    -0.06000
H54         H  0.19595100  0.59716383  0.33365555     0.07700
H55         H  0.20368765  0.63783651  0.34194227     0.08900
Cu56       Cu  0.21450634  0.60203525  0.30773985     0.44200
Cu57       Cu  0.22024555  0.63646680  0.31285547     0.42000
Cu58       Cu  0.23485246  0.61846802  0.28418024     0.43900
N59         N  0.22476661  0.59221233  0.29309479    -0.34700
N60         N  0.23226665  0.59809293  0.28418606    -0.28900
C61         C  0.23745594  0.58883053  0.27610545    -0.05000
C62         C  0.23304749  0.57651874  0.28026670     0.07200
C63         C  0.22501514  0.57914373  0.29105887     0.01000
H64         H  0.24401146  0.59091255  0.26790715     0.08600
H65         H  0.21951325  0.57212315  0.29693027     0.07700
N66         N  0.23615425  0.63875278  0.28725616    -0.36100
N67         N  0.23128955  0.64517661  0.29760429    -0.28300
C68         C  0.23440102  0.65805139  0.29644119    -0.03500
C69         C  0.24145367  0.65985926  0.28478202     0.05100
C70         C  0.24232622  0.64738236  0.27924739     0.03200
H71         H  0.23157904  0.66557007  0.30350803     0.08300
H72         H  0.24731580  0.64468183  0.27016199     0.07100
N73         N  0.21551752  0.43553962  0.19623093    -0.27300
N74         N  0.21607616  0.44855773  0.19642617    -0.35200
C75         C  0.20969102  0.45344140  0.18590554     0.01000
C76         C  0.20487996  0.44304662  0.17851288     0.07100
C77         C  0.20884103  0.43178223  0.18532020    -0.06000
H78         H  0.20878648  0.46385286  0.18373177     0.07700
H79         H  0.20681914  0.42164631  0.18266831     0.08900
Cu80       Cu  0.22527429  0.45938379  0.21093960     0.44200
Cu81       Cu  0.22358458  0.42415879  0.21153834     0.42000
Cu82       Cu  0.23541599  0.44351390  0.24054637     0.43900
N83         N  0.23271158  0.46956057  0.22686742    -0.34700
N84         N  0.23596277  0.46391628  0.23816395    -0.28900
C85         C  0.23914776  0.47340955  0.24692892    -0.05000
C86         C  0.23791103  0.48559028  0.24073269     0.07200
C87         C  0.23384871  0.48269487  0.22801691     0.01000
H88         H  0.24195185  0.47158497  0.25708223     0.08600
H89         H  0.23121423  0.48964140  0.22034168     0.07700
N90         N  0.23566020  0.42299874  0.23916674    -0.36100
N91         N  0.23187215  0.41607533  0.22872862    -0.28300
C92         C  0.23454251  0.40323418  0.23095214    -0.03500
C93         C  0.24020328  0.40197887  0.24337718     0.05100
C94         C  0.24067420  0.41473289  0.24827672     0.03200
H95         H  0.23262644  0.39540412  0.22394622     0.08300
H96         H  0.24490823  0.41788768  0.25756063     0.07100
N97         N  0.35817962  0.57404480  0.58141391    -0.27300
N98         N  0.34580374  0.57736092  0.57914733    -0.35200
C99         C  0.34167153  0.58583237  0.58847599     0.01000
C100        C  0.35188477  0.58802747  0.59721501     0.07100
C101        C  0.36222494  0.58029056  0.59247959    -0.06000
H102        H  0.33176113  0.58974438  0.58906712     0.07700
H103        H  0.37193867  0.57928061  0.59673828     0.08900
Cu104      Cu  0.33472145  0.57003591  0.56381927     0.44200
Cu105      Cu  0.36849296  0.56148710  0.56859296     0.42000
Cu106      Cu  0.34983308  0.55091225  0.53851254     0.43900
N107        N  0.32437598  0.56256174  0.54804643    -0.34700
N108        N  0.32976562  0.55572754  0.53829970    -0.28900
C109        C  0.32021445  0.55244395  0.52962081    -0.05000
C110        C  0.30826733  0.55732341  0.53435100     0.07200
C111        C  0.31137482  0.56368809  0.54602229     0.01000
H112        H  0.32176478  0.54659595  0.52079231     0.08600
H113        H  0.30467107  0.56879710  0.55261939     0.07700
N114        N  0.36989193  0.54739002  0.54190758    -0.36100
N115        N  0.37645420  0.55086242  0.55267210    -0.28300
C116        C  0.38918650  0.54731799  0.55118852    -0.03500
C117        C  0.39082814  0.54143599  0.53887769     0.05100
C118        C  0.37832426  0.54163792  0.53334312     0.03200
H119        H  0.39678598  0.54936421  0.55837527     0.08300
H120        H  0.37551738  0.53799774  0.52369881     0.07100
N121        N  0.16615480  0.57202393  0.44917504    -0.27300
N122        N  0.17880360  0.57465526  0.45072729    -0.35200
C123        C  0.18313376  0.58183592  0.44045821     0.01000
C124        C  0.17279894  0.58381305  0.43181736     0.07100
C125        C  0.16214984  0.57734341  0.43759312    -0.06000
H126        H  0.19319254  0.58516843  0.43925805     0.07700
H127        H  0.15221592  0.57676606  0.43378957     0.08900
Cu128      Cu  0.19000709  0.56810869  0.46638686     0.44200
Cu129      Cu  0.15547258  0.56177235  0.46369933     0.42000
Cu130      Cu  0.17497741  0.54975330  0.49254949     0.43900
N131        N  0.20054914  0.56066968  0.48210846    -0.34700
N132        N  0.19520208  0.55406027  0.49202241    -0.28900
C133        C  0.20480966  0.55088314  0.50067260    -0.05000
C134        C  0.21676472  0.55561168  0.49581507     0.07200
C135        C  0.21358772  0.56175948  0.48403191     0.01000
H136        H  0.20323964  0.54539305  0.50971690     0.08600
H137        H  0.22022290  0.56686397  0.47738580     0.07700
N138        N  0.15455508  0.54729554  0.49025411    -0.36100
N139        N  0.14758874  0.55189474  0.48017936    -0.28300
C140        C  0.13477830  0.54895084  0.48218726    -0.03500
C141        C  0.13355418  0.54202101  0.49396294     0.05100
C142        C  0.14633121  0.54113783  0.49875406     0.03200
H143        H  0.12693903  0.55145001  0.47540469     0.08300
H144        H  0.14942103  0.53649543  0.50786962     0.07100
N145        N  0.30713280  0.62462366  0.70009523    -0.27300
N146        N  0.31144311  0.61258285  0.70267432    -0.35200
C147        C  0.32030572  0.60898735  0.69349570     0.01000
C148        C  0.32168374  0.61913457  0.68448941     0.07100
C149        C  0.31309919  0.62891670  0.68892317    -0.06000
H150        H  0.32483556  0.59932674  0.69300425     0.07700
H151        H  0.31118327  0.63833386  0.68427355     0.08900
Cu152      Cu  0.30419127  0.60040644  0.71726632     0.44200
Cu153      Cu  0.29318911  0.63412772  0.71218703     0.42000
Cu154      Cu  0.28079621  0.61310999  0.73956393     0.43900
N155        N  0.29467022  0.58865669  0.73086175    -0.34700
N156        N  0.28609087  0.59336185  0.73950104    -0.28900
C157        C  0.28137635  0.58332978  0.74684252    -0.05000
C158        C  0.28716224  0.57174221  0.74238721     0.07200
C159        C  0.29553431  0.57551622  0.73225338     0.01000
H160        H  0.27396288  0.58433406  0.75450040     0.08600
H161        H  0.30176308  0.56918782  0.72628128     0.07700
N162        N  0.27648277  0.63297355  0.73720650    -0.36100
N163        N  0.28054628  0.64059583  0.72736668    -0.28300
C164        C  0.27595621  0.65293980  0.72945791    -0.03500
C165        C  0.26882411  0.65307376  0.74122404     0.05100
C166        C  0.26937830  0.64022241  0.74577270     0.03200
H167        H  0.27813142  0.66130966  0.72318474     0.08300
H168        H  0.26506410  0.63638825  0.75478560     0.07100
N169        N  0.30192083  0.43177316  0.82537756    -0.27300
N170        N  0.30485649  0.44410233  0.82238900    -0.35200
C171        C  0.31177833  0.44954426  0.83222477     0.01000
C172        C  0.31334157  0.44031851  0.84215556     0.07100
C173        C  0.30688069  0.42909913  0.83749970    -0.06000
H174        H  0.31488649  0.45974560  0.83234239     0.07700
H175        H  0.30579275  0.41976360  0.84256562     0.08900
Cu176      Cu  0.29817792  0.45389213  0.80598581     0.44200
Cu177      Cu  0.29119562  0.42002344  0.81205512     0.42000
Cu178      Cu  0.28012312  0.43778987  0.78125072     0.43900
N179        N  0.28932474  0.46391588  0.79081049    -0.34700
N180        N  0.28274194  0.45811122  0.78121107    -0.28900
C181        C  0.27831188  0.46744431  0.77281054    -0.05000
C182        C  0.28217998  0.47968090  0.77761179     0.07200
C183        C  0.28914082  0.47700093  0.78901262     0.01000
H184        H  0.27258817  0.46549307  0.76401612     0.08600
H185        H  0.29396376  0.48402254  0.79543659     0.07700
N186        N  0.27823149  0.41766334  0.78479711    -0.36100
N187        N  0.28177819  0.41132287  0.79569326    -0.28300
C188        C  0.27864132  0.39846617  0.79429427    -0.03500
C189        C  0.27293995  0.39660141  0.78194462     0.05100
C190        C  0.27288205  0.40903483  0.77626999     0.03200
H191        H  0.28054155  0.39100316  0.80169309     0.08300
H192        H  0.26902627  0.41174314  0.76668448     0.07100
N193        N  0.55078966  0.59746527  0.35834241    -0.27300
N194        N  0.55047603  0.59660392  0.34530661    -0.35200
C195        C  0.55707902  0.60669606  0.33993686     0.01000
C196        C  0.56182600  0.61458059  0.34995458     0.07100
C197        C  0.55755075  0.60852068  0.36159860    -0.06000
H198        H  0.55833406  0.60816291  0.32940303     0.07700
H199        H  0.55952825  0.61170053  0.37161496     0.08900
Cu200      Cu  0.54208332  0.58153344  0.33479261     0.44200
Cu201      Cu  0.54238668  0.58241364  0.37004380     0.42000
Cu202      Cu  0.53406129  0.55182582  0.35043373     0.43900
N203        N  0.53776281  0.56486215  0.32421469    -0.34700
N204        N  0.53548886  0.55333723  0.32981858    -0.28900
C205        C  0.53434895  0.54416615  0.32019774    -0.05000
C206        C  0.53587304  0.55037661  0.30798902     0.07200
C207        C  0.53801933  0.56349188  0.31102057     0.01000
H208        H  0.53254574  0.53379611  0.32194822     0.08600
H209        H  0.54017364  0.57141502  0.30418187     0.07700
N210        N  0.53097100  0.55436826  0.37079971    -0.36100
N211        N  0.53355942  0.56517034  0.37773042    -0.28300
C212        C  0.52948148  0.56325566  0.39032194    -0.03500
C213        C  0.52411297  0.55068001  0.39144987     0.05100
C214        C  0.52529901  0.54540102  0.37882349     0.03200
H215        H  0.53042776  0.57051263  0.39810663     0.08300
H216        H  0.52200147  0.53580387  0.37554855     0.07100
N217        N  0.55578235  0.46629065  0.16590286    -0.27300
N218        N  0.56118393  0.46991672  0.17720613    -0.35200
C219        C  0.56867484  0.46007240  0.18191990     0.01000
C220        C  0.56797002  0.44952384  0.17329593     0.07100
C221        C  0.55963946  0.45379430  0.16322446    -0.06000
H222        H  0.57365116  0.46032507  0.19136662     0.07700
H223        H  0.55645895  0.44816337  0.15472377     0.08900
Cu224      Cu  0.55667553  0.48715128  0.18698391     0.44200
Cu225      Cu  0.54316416  0.47904256  0.15542402     0.42000
Cu226      Cu  0.53361712  0.50975788  0.17384836     0.43900
N227        N  0.54892264  0.50242808  0.19793753    -0.34700
N228        N  0.54018963  0.51094155  0.19340205    -0.28900
C229        C  0.53638770  0.51888916  0.20346240    -0.05000
C230        C  0.54298977  0.51498356  0.21487718     0.07200
C231        C  0.55087727  0.50456457  0.21086432     0.01000
H232        H  0.52896347  0.52651612  0.20266411     0.08600
H233        H  0.55737472  0.49867168  0.21692929     0.07700
N234        N  0.52892364  0.50565856  0.15411476    -0.36100
N235        N  0.53204160  0.49475557  0.14754914    -0.28300
C236        C  0.52740693  0.49580621  0.13507646    -0.03500
C237        C  0.52117615  0.50795748  0.13365280     0.05100
C238        C  0.52236259  0.51385249  0.14598149     0.03200
H239        H  0.52878473  0.48838681  0.12749817     0.08300
H240        H  0.51870452  0.52345016  0.14891008     0.07100
N241        N  0.60571579  0.71923426  0.31016172    -0.27300
N242        N  0.59404681  0.72283030  0.31476352    -0.35200
C243        C  0.58878807  0.71299557  0.32192071     0.01000
C244        C  0.59741346  0.70244562  0.32183389     0.07100
C245        C  0.60808117  0.70672904  0.31421240    -0.06000
H246        H  0.57897348  0.71321840  0.32613951     0.07700
H247        H  0.61675269  0.70107196  0.31158256     0.08900
Cu248      Cu  0.58443366  0.73978434  0.30921128     0.44200
Cu249      Cu  0.61693638  0.73206867  0.29807673     0.42000
Cu250      Cu  0.59773174  0.76101968  0.28505168     0.43900
N251        N  0.57340286  0.75413943  0.30010292    -0.34700
N252        N  0.57797106  0.76212494  0.29086330    -0.28900
C253        C  0.56793901  0.76976165  0.28652382    -0.05000
C254        C  0.55653576  0.76617589  0.29333146     0.07200
C255        C  0.56048815  0.75627508  0.30184648     0.01000
H256        H  0.56878345  0.77705190  0.27875205     0.08600
H257        H  0.55440371  0.75084710  0.30875782     0.07700
N258        N  0.61800401  0.75805781  0.28256622    -0.36100
N259        N  0.62494507  0.74786726  0.28695864    -0.28300
C260        C  0.63771978  0.74971731  0.28355161    -0.03500
C261        C  0.63889396  0.76165498  0.27684148     0.05100
C262        C  0.62615544  0.76657412  0.27644723     0.03200
H263        H  0.64563069  0.74300794  0.28604756     0.08300
H264        H  0.62297068  0.77572668  0.27197195     0.07100
N265        N  0.41304463  0.84594130  0.31076902    -0.27300
N266        N  0.42597794  0.84520945  0.31193225    -0.35200
C267        C  0.43036414  0.85577935  0.31856388     0.01000
C268        C  0.41969796  0.86370918  0.32169594     0.07100
C269        C  0.40883875  0.85720394  0.31651393    -0.06000
H270        H  0.44063627  0.85768408  0.32065164     0.07700
H271        H  0.39865044  0.86033003  0.31701246     0.08900
Cu272      Cu  0.43720462  0.83019117  0.30407376     0.44200
Cu273      Cu  0.40225274  0.83098255  0.30179070     0.42000
Cu274      Cu  0.42129226  0.80153697  0.29081374     0.43900
N275        N  0.44744575  0.81459993  0.29599821    -0.34700
N276        N  0.44187918  0.80369429  0.29155613    -0.28900
C277        C  0.45151523  0.79518927  0.28798115    -0.05000
C278        C  0.46365863  0.80118677  0.29015006     0.07200
C279        C  0.46060652  0.81348194  0.29520115     0.01000
H280        H  0.44982278  0.78534973  0.28420748     0.08600
H281        H  0.46745474  0.82088194  0.29865544     0.07700
N282        N  0.40065505  0.80337909  0.29000689    -0.36100
N283        N  0.39399095  0.81404083  0.29363553    -0.28300
C284        C  0.38109816  0.81217245  0.29116296    -0.03500
C285        C  0.37941585  0.79972650  0.28574250     0.05100
C286        C  0.39207261  0.79444600  0.28521378     0.03200
H287        H  0.37351810  0.81942200  0.29317126     0.08300
H288        H  0.39492592  0.78494547  0.28124709     0.07100
N289        N  0.41150845  0.21732273  0.21125914    -0.27300
N290        N  0.42440969  0.21868570  0.21010009    -0.35200
C291        C  0.42938184  0.20843141  0.20334374     0.01000
C292        C  0.41921012  0.20000178  0.20003066     0.07100
C293        C  0.40795812  0.20593439  0.20528774    -0.06000
H294        H  0.43977871  0.20704058  0.20138607     0.07700
H295        H  0.39797071  0.20224962  0.20483202     0.08900
Cu296      Cu  0.43525213  0.23385783  0.21821609     0.44200
Cu297      Cu  0.39996396  0.23138911  0.22119285     0.42000
Cu298      Cu  0.41873070  0.26027791  0.23410203     0.43900
N299        N  0.44524086  0.24932169  0.22687545    -0.34700
N300        N  0.43924016  0.25943727  0.23252077    -0.28900
C301        C  0.44844899  0.26791348  0.23698424    -0.05000
C302        C  0.46084422  0.26274655  0.23411764     0.07200
C303        C  0.45834928  0.25094735  0.22769226     0.01000
H304        H  0.44628308  0.27703521  0.24211628     0.08600
H305        H  0.46552449  0.24410676  0.22369092     0.07700
N306        N  0.39836327  0.25773728  0.23579817    -0.36100
N307        N  0.39168501  0.24735617  0.23152757    -0.28300
C308        C  0.37892239  0.24882506  0.23500463    -0.03500
C309        C  0.37743964  0.26070774  0.24169285     0.05100
C310        C  0.38999534  0.26606184  0.24195158     0.03200
H311        H  0.37127096  0.24175788  0.23276572     0.08300
H312        H  0.39294241  0.27520408  0.24659851     0.07100
N313        N  0.60346660  0.34160182  0.21335812    -0.27300
N314        N  0.59077617  0.33959033  0.21135509    -0.35200
C315        C  0.58573281  0.34960970  0.20435912     0.01000
C316        C  0.59561757  0.35863575  0.20177524     0.07100
C317        C  0.60680033  0.35322431  0.20768224    -0.06000
H318        H  0.57537349  0.35059868  0.20207507     0.07700
H319        H  0.61651901  0.35756582  0.20812654     0.08900
Cu320      Cu  0.58003450  0.32458928  0.21979718     0.44200
Cu321      Cu  0.61468679  0.32822597  0.22460239     0.42000
Cu322      Cu  0.59492156  0.30151744  0.24126610     0.43900
N323        N  0.56921353  0.31099071  0.23030032    -0.34700
N324        N  0.57444734  0.30208651  0.23824069    -0.28900
C325        C  0.56460834  0.29461118  0.24329612    -0.05000
C326        C  0.55266391  0.29929251  0.23839869     0.07200
C327        C  0.55606910  0.30966063  0.23020742     0.01000
H328        H  0.56601137  0.28648387  0.25008383     0.08600
H329        H  0.54948322  0.31566604  0.22433923     0.07700
N330        N  0.61556394  0.30337747  0.24188228    -0.36100
N331        N  0.62258435  0.31279088  0.23609166    -0.28300
C332        C  0.63548529  0.31055726  0.23849467    -0.03500
C333        C  0.63674424  0.29918016  0.24607645     0.05100
C334        C  0.62385147  0.29497835  0.24800665     0.03200
H335        H  0.64339948  0.31663534  0.23471476     0.08300
H336        H  0.62065967  0.28638746  0.25348408     0.07100
N337        N  0.45691341  0.09340406  0.16104807    -0.27300
N338        N  0.45032303  0.08965886  0.17170262    -0.35200
C339        C  0.44218977  0.09936905  0.17559319     0.01000
C340        C  0.44371041  0.10996424  0.16713648     0.07100
C341        C  0.45317873  0.10583865  0.15799375    -0.06000
H342        H  0.43639360  0.09910652  0.18459681     0.07700
H343        H  0.45737510  0.11160576  0.15002549     0.08900
Cu344      Cu  0.45444469  0.07293340  0.18246752     0.44200
Cu345      Cu  0.47118152  0.08116735  0.15212690     0.42000
Cu346      Cu  0.48116705  0.05262732  0.17294130     0.43900
N347        N  0.46241704  0.05898749  0.19490378    -0.34700
N348        N  0.47278754  0.05171228  0.19182781    -0.28900
C349        C  0.47616883  0.04446221  0.20250576    -0.05000
C350        C  0.46734804  0.04730187  0.21267787     0.07200
C351        C  0.45881646  0.05655608  0.20744398     0.01000
H352        H  0.48433837  0.03759913  0.20281566     0.08600
H353        H  0.45079497  0.06149776  0.21250963     0.07700
N354        N  0.48656399  0.05529674  0.15312866    -0.36100
N355        N  0.48335384  0.06556447  0.14568310    -0.28300
C356        C  0.48813063  0.06355987  0.13334066    -0.03500
C357        C  0.49447304  0.05139339  0.13292371     0.05100
C358        C  0.49325933  0.04651974  0.14569168     0.03200
H359        H  0.48650436  0.07016188  0.12509668     0.08300
H360        H  0.49675934  0.03710492  0.14930176     0.07100
N361        N  0.45195587  0.97148282  0.35891903    -0.27300
N362        N  0.44592996  0.97485086  0.34786414    -0.35200
C363        C  0.43802228  0.96496741  0.34403739     0.01000
C364        C  0.43913718  0.95474245  0.35304413     0.07100
C365        C  0.44809391  0.95924081  0.36237967    -0.06000
H366        H  0.43267389  0.96484493  0.33479781     0.07700
H367        H  0.45194611  0.95383381  0.37074514     0.08900
Cu368      Cu  0.45062409  0.99148590  0.33704205     0.44200
Cu369      Cu  0.46599069  0.98355416  0.36771541     0.42000
Cu370      Cu  0.47867680  0.01065720  0.34694025     0.43900
N371        N  0.45929685  0.00562905  0.32516573    -0.34700
N372        N  0.47006718  0.01221121  0.32832661    -0.28900
C373        C  0.47389013  0.01947323  0.31781113    -0.05000
C374        C  0.46496420  0.01742227  0.30764450     0.07200
C375        C  0.45586606  0.00861471  0.31271365     0.01000
H376        H  0.48251141  0.02573582  0.31757892     0.08600
H377        H  0.44766171  0.00421414  0.30753055     0.07700
N378        N  0.48363937  0.00772160  0.36671662    -0.36100
N379        N  0.47908793  0.99797424  0.37413504    -0.28300
C380        C  0.48370307  0.99939423  0.38651035    -0.03500
C381        C  0.49152465  0.01059969  0.38701136     0.05100
C382        C  0.49122916  0.01559969  0.37422637     0.03200
H383        H  0.48111130  0.99295893  0.39464149     0.08300
H384        H  0.49598389  0.02444569  0.37062981     0.07100
N385        N  0.69517869  0.31988120  0.60806875    -0.27300
N386        N  0.69735758  0.32204284  0.59534954    -0.35200
C387        C  0.68784311  0.32982562  0.59049028     0.01000
C388        C  0.67897458  0.33266846  0.60048426     0.07100
C389        C  0.68387341  0.32611431  0.61154780    -0.06000
H390        H  0.68704592  0.33260321  0.58018692     0.07700
H391        H  0.67947277  0.32578206  0.62130899     0.08900
Cu392      Cu  0.71204820  0.31320781  0.58431075     0.44200
Cu393      Cu  0.70822586  0.30834703  0.61939349     0.42000
Cu394      Cu  0.73677808  0.29467554  0.60010938     0.43900
N395        N  0.72645345  0.30327184  0.57384254    -0.34700
N396        N  0.73608335  0.29666382  0.57957395    -0.28900
C397        C  0.74400548  0.29158889  0.57008899    -0.05000
C398        C  0.73891104  0.29503759  0.55781019     0.07200
C399        C  0.72778358  0.30244240  0.56064728     0.01000
H400        H  0.75264912  0.28562793  0.57197771     0.08600
H401        H  0.72121637  0.30708814  0.55363766     0.07700
N402        N  0.73418177  0.29295733  0.62054788    -0.36100
N403        N  0.72399385  0.29746752  0.62745458    -0.28300
C404        C  0.72572582  0.29419906  0.64028562    -0.03500
C405        C  0.73757715  0.28740214  0.64155885     0.05100
C406        C  0.74259059  0.28683935  0.62879186     0.03200
H407        H  0.71894225  0.29680053  0.64814835     0.08300
H408        H  0.75166261  0.28217577  0.62562282     0.07100
N409        N  0.82207818  0.31648170  0.41837677    -0.27300
N410        N  0.81913875  0.31833717  0.43098721    -0.35200
C411        C  0.82842449  0.32575900  0.43672959     0.01000
C412        C  0.83796881  0.32879432  0.42743431     0.07100
C413        C  0.83360760  0.32270619  0.41583615    -0.06000
H414        H  0.82853882  0.32808597  0.44717293     0.07700
H415        H  0.83857964  0.32257051  0.40635271     0.08900
Cu416      Cu  0.80383154  0.30941030  0.44080985     0.44200
Cu417      Cu  0.80986652  0.30494123  0.40600227     0.42000
Cu418      Cu  0.78086222  0.29010506  0.42391243     0.43900
N419        N  0.78948930  0.29898300  0.45061263    -0.34700
N420        N  0.78042061  0.29195767  0.44451943    -0.28900
C421        C  0.77224365  0.28677060  0.45372354    -0.05000
C422        C  0.77663935  0.29060990  0.46618249     0.07200
C423        C  0.78758551  0.29833925  0.46372626     0.01000
H424        H  0.76381935  0.28062849  0.45153408     0.08600
H425        H  0.79354922  0.30347503  0.47092529     0.07700
N426        N  0.78436153  0.28897665  0.40351252    -0.36100
N427        N  0.79466138  0.29381757  0.39702219    -0.28300
C428        C  0.79322062  0.29101323  0.38400503    -0.03500
C429        C  0.78142051  0.28425217  0.38220287     0.05100
C430        C  0.77618729  0.28316937  0.39484362     0.03200
H431        H  0.80002463  0.29409735  0.37634705     0.08300
H432        H  0.76699316  0.27852639  0.39761128     0.07100
N433        N  0.07732277  0.18257361  0.47010925    -0.27300
N434        N  0.07620699  0.19555412  0.46979522    -0.35200
C435        C  0.08622815  0.20069010  0.46284364     0.01000
C436        C  0.09424623  0.19050924  0.45863725     0.07100
C437        C  0.08840660  0.17910453  0.46351603    -0.06000
H438        H  0.08759718  0.21112162  0.46103490     0.07700
H439        H  0.09173102  0.16906480  0.46202742     0.08900
Cu440      Cu  0.06106001  0.20592876  0.47841431     0.44200
Cu441      Cu  0.06263581  0.17084759  0.47867390     0.42000
Cu442      Cu  0.03215160  0.18894254  0.48885900     0.43900
N443        N  0.04457996  0.21553816  0.48525295    -0.34700
N444        N  0.03346174  0.20953426  0.48840487    -0.28900
C445        C  0.02428062  0.21879999  0.49115292    -0.05000
C446        C  0.03009633  0.23113928  0.48986080     0.07200
C447        C  0.04294659  0.22863837  0.48613175     0.01000
H448        H  0.01417092  0.21673203  0.49387133     0.08600
H449        H  0.05042571  0.23583063  0.48364637     0.07700
N450        N  0.03479838  0.16848686  0.49011661    -0.36100
N451        N  0.04571452  0.16211166  0.48673822    -0.28300
C452        C  0.04419164  0.14921709  0.48956293    -0.03500
C453        C  0.03174616  0.14727039  0.49499860     0.05100
C454        C  0.02609685  0.15976235  0.49512318     0.03200
H455        H  0.05170349  0.14182789  0.48784254     0.08300
H456        H  0.01650235  0.16244368  0.49897559     0.07100
N457        N  0.94280729  0.37087290  0.46905086    -0.27300
N458        N  0.94603817  0.35885057  0.46515142    -0.35200
C459        C  0.93617210  0.35361974  0.45810893     0.01000
C460        C  0.92598127  0.36262362  0.45758824     0.07100
C461        C  0.93046120  0.37349299  0.46472460    -0.06000
H462        H  0.93616507  0.34367401  0.45421120     0.07700
H463        H  0.92514072  0.38255754  0.46663579     0.08900
Cu464      Cu  0.96275003  0.34906821  0.47105187     0.44200
Cu465      Cu  0.95623921  0.38236677  0.47997949     0.42000
Cu466      Cu  0.98624865  0.36413882  0.49187620     0.43900
N467        N  0.97775404  0.33867129  0.47981599    -0.34700
N468        N  0.98655790  0.34395462  0.48777484    -0.28900
C469        C  0.99476156  0.33433990  0.49196327    -0.05000
C470        C  0.99081936  0.32241882  0.48634255     0.07200
C471        C  0.97998101  0.32568986  0.47871089     0.01000
H472        H  0.00292507  0.33593741  0.49861796     0.08600
H473        H  0.97406974  0.31921583  0.47266509     0.07700
N474        N  0.98340654  0.38453198  0.49311748    -0.36100
N475        N  0.97276342  0.39102536  0.48917524    -0.28300
C476        C  0.97458333  0.40399976  0.49156089    -0.03500
C477        C  0.98695558  0.40581611  0.49714927     0.05100
C478        C  0.99220799  0.39321057  0.49794821     0.03200
H479        H  0.96747938  0.41159397  0.48917430     0.08300
H480        H  0.00171854  0.39047495  0.50190382     0.07100
N481        N  0.44069330  0.18299974  0.55514224    -0.27300
N482        N  0.44235293  0.19582696  0.55670830    -0.35200
C483        C  0.43251291  0.20074711  0.56410366     0.01000
C484        C  0.42399680  0.19062139  0.56737862     0.07100
C485        C  0.42947522  0.17945183  0.56145649    -0.06000
H486        H  0.43142370  0.21109767  0.56648641     0.07700
H487        H  0.42559113  0.16952241  0.56169285     0.08900
Cu488      Cu  0.45737514  0.20657962  0.54829677     0.44200
Cu489      Cu  0.45436120  0.17157157  0.54444842     0.42000
Cu490      Cu  0.48445613  0.19003497  0.53367141     0.43900
N491        N  0.47326733  0.21654255  0.54056219    -0.34700
N492        N  0.48380550  0.21056823  0.53572401    -0.28900
C493        C  0.49289356  0.21980959  0.53270171    -0.05000
C494        C  0.48762584  0.23215398  0.53560750     0.07200
C495        C  0.47516848  0.22964254  0.54053631     0.01000
H496        H  0.50260102  0.21771606  0.52875824     0.08600
H497        H  0.46821200  0.23677493  0.54441946     0.07700
N498        N  0.48149519  0.16971973  0.53133313    -0.36100
N499        N  0.47067558  0.16318269  0.53467595    -0.28300
C500        C  0.47224801  0.15037905  0.53131427    -0.03500
C501        C  0.48467272  0.14870675  0.52574967     0.05100
C502        C  0.49019866  0.16121245  0.52595183     0.03200
H503        H  0.46500035  0.14277085  0.53313110     0.08300
H504        H  0.49985174  0.16398996  0.52233956     0.07100
N505        N  0.57301927  0.37154648  0.55885684    -0.27300
N506        N  0.56920782  0.36027462  0.56417914    -0.35200
C507        C  0.57911502  0.35505318  0.57121023     0.01000
C508        C  0.58991661  0.36332936  0.57037112     0.07100
C509        C  0.58567607  0.37373253  0.56238702    -0.06000
H510        H  0.57862914  0.34553216  0.57601132     0.07700
H511        H  0.59140468  0.38216215  0.55923793     0.08900
Cu512      Cu  0.55162120  0.35110103  0.56005219     0.44200
Cu513      Cu  0.56027100  0.38263870  0.54671865     0.42000
Cu514      Cu  0.53050159  0.36459381  0.53547508     0.43900
N515        N  0.53700851  0.34031937  0.55105185    -0.34700
N516        N  0.52929022  0.34499951  0.54166751    -0.28900
C517        C  0.52182161  0.33505278  0.53697867    -0.05000
C518        C  0.52517272  0.32355416  0.54368459     0.07200
C519        C  0.53480074  0.32736298  0.55255432     0.01000
H520        H  0.51487520  0.33601680  0.52894236     0.08600
H521        H  0.54010504  0.32114161  0.55941242     0.07700
N522        N  0.53403307  0.38458013  0.53196639    -0.36100
N523        N  0.54466081  0.39107721  0.53584657    -0.28300
C524        C  0.54341358  0.40380788  0.53213800    -0.03500
C525        C  0.53143053  0.40547795  0.52567271     0.05100
C526        C  0.52581218  0.39300397  0.52579298     0.03200
H527        H  0.55060081  0.41136703  0.53429809     0.08300
H528        H  0.51638807  0.39019041  0.52171302     0.07100
N529        N  0.31827411  0.22810338  0.60914666    -0.27300
N530        N  0.31589709  0.22515542  0.59664180    -0.35200
C531        C  0.32572659  0.21767952  0.59182952     0.01000
C532        C  0.33498338  0.21591833  0.60163793     0.07100
C533        C  0.33000727  0.22275027  0.61251815    -0.06000
H534        H  0.32652685  0.21453739  0.58162264     0.07700
H535        H  0.33469694  0.22396929  0.62203552     0.08900
Cu536      Cu  0.30078413  0.23318370  0.58572312     0.44200
Cu537      Cu  0.30503696  0.23963012  0.62029979     0.42000
Cu538      Cu  0.27656928  0.25314828  0.60122317     0.43900
N539        N  0.28677976  0.24347075  0.57520516    -0.34700
N540        N  0.27746012  0.25070630  0.58077372    -0.28900
C541        C  0.26987031  0.25594427  0.57117265    -0.05000
C542        C  0.27487023  0.25192233  0.55900154     0.07200
C543        C  0.28558053  0.24403749  0.56200679     0.01000
H544        H  0.26151273  0.26236470  0.57290805     0.08600
H545        H  0.29195472  0.23889529  0.55511342     0.07700
N546        N  0.27885275  0.25457835  0.62166711    -0.36100
N547        N  0.28907386  0.25014638  0.62849303    -0.28300
C548        C  0.28717127  0.25310651  0.64138024    -0.03500
C549        C  0.27516382  0.25957787  0.64275939     0.05100
C550        C  0.27021481  0.26029883  0.63002980     0.03200
H551        H  0.29391974  0.25048291  0.64921510     0.08300
H552        H  0.26103581  0.26479851  0.62699703     0.07100
N553        N  0.19677590  0.23165963  0.41610830    -0.27300
N554        N  0.19922252  0.22861058  0.42856040    -0.35200
C555        C  0.18991860  0.22037297  0.43305013     0.01000
C556        C  0.18096202  0.21816326  0.42303914     0.07100
C557        C  0.18557791  0.22554117  0.41239505    -0.06000
H558        H  0.18921148  0.21702963  0.44319369     0.07700
H559        H  0.18095691  0.22668280  0.40283325     0.08900
Cu560      Cu  0.21361820  0.23734155  0.43980407     0.44200
Cu561      Cu  0.20898884  0.24444147  0.40554784     0.42000
Cu562      Cu  0.23679043  0.25884442  0.42478594     0.43900
N563        N  0.22710070  0.24795668  0.45056755    -0.34700
N564        N  0.23608931  0.25567636  0.44515194    -0.28900
C565        C  0.24371238  0.26066841  0.45483312    -0.05000
C566        C  0.23907459  0.25598257  0.46689545     0.07200
C567        C  0.22853114  0.24797870  0.46376049     0.01000
H568        H  0.25197011  0.26721910  0.45322252     0.08600
H569        H  0.22258724  0.24222232  0.47053082     0.07700
N570        N  0.23418865  0.26076112  0.40441233    -0.36100
N571        N  0.22411024  0.25597543  0.39764406    -0.28300
C572        C  0.22563259  0.25916855  0.38480424    -0.03500
C573        C  0.23725542  0.26619130  0.38334615     0.05100
C574        C  0.24239661  0.26699582  0.39600408     0.03200
H575        H  0.21893166  0.25623720  0.37704374     0.08300
H576        H  0.25143395  0.27180745  0.39893978     0.07100
N577        N  0.70839402  0.92931907  0.69269472    -0.27300
N578        N  0.70310428  0.94054785  0.69669515    -0.35200
C579        C  0.69591731  0.94580798  0.68692084     0.01000
C580        C  0.69664279  0.93762240  0.67599623     0.07100
C581        C  0.70471651  0.92721066  0.68001408    -0.06000
H582        H  0.69125872  0.95539881  0.68748583     0.07700
H583        H  0.70795247  0.91893188  0.67406960     0.08900
Cu584      Cu  0.70777190  0.94978092  0.71416069     0.44200
Cu585      Cu  0.72082451  0.91845224  0.70529559     0.42000
Cu586      Cu  0.73296141  0.93727561  0.73476732     0.43900
N587        N  0.71662518  0.96093919  0.72858780    -0.34700
N588        N  0.72654955  0.95682094  0.73592937    -0.28900
C589        C  0.73065574  0.96694778  0.74357834    -0.05000
C590        C  0.72275001  0.97781545  0.74088968     0.07200
C591        C  0.71400382  0.97359157  0.73137821     0.01000
H592        H  0.73852563  0.96635872  0.75074688     0.08600
H593        H  0.70637133  0.97937193  0.72666851     0.07700
N594        N  0.73585066  0.91710684  0.73151766    -0.36100
N595        N  0.73170853  0.91038728  0.72108007    -0.28300
C596        C  0.73516771  0.89761903  0.72261632    -0.03500
C597        C  0.74175106  0.89614934  0.73458788     0.05100
C598        C  0.74194275  0.90878472  0.73989316     0.03200
H599        H  0.73278982  0.88992798  0.71560743     0.08300
H600        H  0.74618563  0.91180951  0.74920816     0.07100
N601        N  0.70728213  0.11954206  0.82263049    -0.27300
N602        N  0.70174558  0.10847847  0.81860512    -0.35200
C603        C  0.69454441  0.10330335  0.82844788     0.01000
C604        C  0.69545922  0.11142184  0.83942769     0.07100
C605        C  0.70366601  0.12169184  0.83533467    -0.06000
H606        H  0.68964539  0.09386744  0.82777344     0.07700
H607        H  0.70708035  0.12989647  0.84123510     0.08900
Cu608      Cu  0.70570450  0.09942259  0.80082100     0.44200
Cu609      Cu  0.72013130  0.13011648  0.81026249     0.42000
Cu610      Cu  0.73040762  0.11174612  0.77968621     0.43900
N611        N  0.71358071  0.08846538  0.78559798    -0.34700
N612        N  0.72329526  0.09257445  0.77793687    -0.28900
C613        C  0.72717499  0.08249541  0.77007889    -0.05000
C614        C  0.71935886  0.07161122  0.77296179     0.07200
C615        C  0.71088878  0.07583460  0.78283892     0.01000
H616        H  0.73509565  0.08302436  0.76290493     0.08600
H617        H  0.70366018  0.06998218  0.78809362     0.07700
N618        N  0.73504303  0.13131320  0.78395636    -0.36100
N619        N  0.73170558  0.13783965  0.79483627    -0.28300
C620        C  0.73641559  0.15024757  0.79392238    -0.03500
C621        C  0.74289770  0.15165427  0.78187247     0.05100
C622        C  0.74179500  0.13941243  0.77588103     0.03200
H623        H  0.73487429  0.15780180  0.80133419     0.08300
H624        H  0.74561216  0.13652694  0.76630025     0.07100
N625        N  0.66457732  0.98772633  0.57088575    -0.27300
N626        N  0.67744125  0.98660856  0.56934049    -0.35200
C627        C  0.68263379  0.98011063  0.57960379     0.01000
C628        C  0.67262171  0.97688482  0.58828010     0.07100
C629        C  0.66122391  0.98198526  0.58251872    -0.06000
H630        H  0.69299746  0.97779482  0.58058794     0.07700
H631        H  0.65125608  0.98113956  0.58625181     0.08900
Cu632      Cu  0.68745141  0.99324588  0.55310534     0.44200
Cu633      Cu  0.65333744  0.99639311  0.55572568     0.42000
Cu634      Cu  0.67213851  0.00588485  0.52440157     0.43900
N635        N  0.69784618  0.99890807  0.53674985    -0.34700
N636        N  0.69257037  0.00337676  0.52571092    -0.28900
C637        C  0.70241565  0.00598937  0.51704995    -0.05000
C638        C  0.71435635  0.00312698  0.52318331     0.07200
C639        C  0.71096712  0.99861973  0.53559988     0.01000
H640        H  0.70102399  0.00994013  0.50721014     0.08600
H641        H  0.71754194  0.99523627  0.54329166     0.07700
N642        N  0.65181438  0.00807142  0.52755425    -0.36100
N643        N  0.64531309  0.00495297  0.53853502    -0.28300
C644        C  0.63254556  0.00826351  0.53699247    -0.03500
C645        C  0.63081069  0.01370305  0.52450756     0.05100
C646        C  0.64328134  0.01335483  0.51883015     0.03200
H647        H  0.62505777  0.00675450  0.54447859     0.08300
H648        H  0.64606692  0.01696218  0.50914646     0.07100
N649        N  0.85815476  0.98413754  0.44332082    -0.27300
N650        N  0.84561316  0.98151129  0.44556474    -0.35200
C651        C  0.84054676  0.97487462  0.43533442     0.01000
C652        C  0.85028878  0.97313447  0.42593667     0.07100
C653        C  0.86138986  0.97922343  0.43128629    -0.06000
H654        H  0.83030896  0.97200786  0.43461670     0.07700
H655        H  0.87102323  0.98007235  0.42675069     0.08900
Cu656      Cu  0.83531920  0.98780758  0.46175454     0.44200
Cu657      Cu  0.86925755  0.99447798  0.45749847     0.42000
Cu658      Cu  0.84985085  0.00594108  0.48746042     0.43900
N659        N  0.82454940  0.99534763  0.47707091    -0.34700
N660        N  0.82960079  0.00220786  0.48690127    -0.28900
C661        C  0.81969069  0.00586248  0.49508050    -0.05000
C662        C  0.80788903  0.00109565  0.48993573     0.07200
C663        C  0.81147890  0.99444976  0.47854758     0.01000
H664        H  0.82095313  0.01172927  0.50392687     0.08600
H665        H  0.80512333  0.98924230  0.47175984     0.07700
N666        N  0.87024985  0.00775555  0.48482657    -0.36100
N667        N  0.87709869  0.00402877  0.47424952    -0.28300
C668        C  0.88992198  0.00689743  0.47628009    -0.03500
C669        C  0.89127023  0.01254384  0.48872564     0.05100
C670        C  0.87856750  0.01290409  0.49379804     0.03200
H671        H  0.89774950  0.00472103  0.46931429     0.08300
H672        H  0.87553125  0.01671589  0.50333532     0.07100
N673        N  0.81902845  0.12885985  0.19597294    -0.27300
N674        N  0.82573815  0.11874348  0.20070757    -0.35200
C675        C  0.83320936  0.11347866  0.19107911     0.01000
C676        C  0.83112215  0.12047290  0.17953297     0.07100
C677        C  0.82203641  0.13020926  0.18301839    -0.06000
H678        H  0.83878156  0.10443561  0.19214623     0.07700
H679        H  0.81750915  0.13735731  0.17651268     0.08900
Cu680      Cu  0.82163173  0.10982056  0.21850421     0.44200
Cu681      Cu  0.80520578  0.13907694  0.20760150     0.42000
Cu682      Cu  0.79210455  0.11932669  0.23512790     0.43900
N683        N  0.81095357  0.09708043  0.23017497    -0.34700
N684        N  0.79951048  0.10009922  0.23566422    -0.28900
C685        C  0.79417722  0.08900598  0.24075520    -0.05000
C686        C  0.80278123  0.07857357  0.23836147     0.07200
C687        C  0.81328400  0.08413930  0.23164214     0.01000
H688        H  0.78475078  0.08856358  0.24576805     0.08600
H689        H  0.82174303  0.07906185  0.22752466     0.07700
N690        N  0.78844485  0.13947096  0.23263167    -0.36100
N691        N  0.79298097  0.14659661  0.22263179    -0.28300
C692        C  0.78897052  0.15919353  0.22424255    -0.03500
C693        C  0.78162352  0.16012513  0.23585383     0.05100
C694        C  0.78154759  0.14736710  0.24085908     0.03200
H695        H  0.79150090  0.16714875  0.21757776     0.08300
H696        H  0.77679803  0.14400004  0.24983717     0.07100
N697        N  0.80947614  0.93663118  0.31888819    -0.27300
N698        N  0.81512516  0.94768474  0.31493127    -0.35200
C699        C  0.82260919  0.95253801  0.32468771     0.01000
C700        C  0.82170110  0.94424081  0.33551000     0.07100
C701        C  0.81321892  0.93422197  0.33148174    -0.06000
H702        H  0.82778535  0.96184211  0.32412019     0.07700
H703        H  0.80988587  0.92591426  0.33730776     0.08900
Cu704      Cu  0.81112827  0.95698490  0.29729303     0.44200
Cu705      Cu  0.79675893  0.92606132  0.30644010     0.42000
Cu706      Cu  0.78664532  0.94398588  0.27593355     0.43900
N707        N  0.80331223  0.96763429  0.28185275    -0.34700
N708        N  0.79370600  0.96333461  0.27420387    -0.28900
C709        C  0.79012951  0.97318706  0.26594381    -0.05000
C710        C  0.79805589  0.98407053  0.26849468     0.07200
C711        C  0.80625116  0.98012520  0.27864038     0.01000
H712        H  0.78247150  0.97244907  0.25856336     0.08600
H713        H  0.81358446  0.98604274  0.28362293     0.07700
N714        N  0.78246870  0.92410682  0.27994443    -0.36100
N715        N  0.78581470  0.91777126  0.29090173    -0.28300
C716        C  0.78169475  0.90515116  0.28997656    -0.03500
C717        C  0.77555624  0.90333288  0.27783532     0.05100
C718        C  0.77627530  0.91562544  0.27179322     0.03200
H719        H  0.78341473  0.89773397  0.29746731     0.08300
H720        H  0.77258463  0.91826406  0.26212282     0.07100
N721        N  0.66338697  0.06455345  0.94543453    -0.27300
N722        N  0.67576456  0.06777908  0.94780181    -0.35200
C723        C  0.68014579  0.07589059  0.93827800     0.01000
C724        C  0.67014712  0.07783345  0.92925644     0.07100
C725        C  0.65963226  0.07042152  0.93404970    -0.06000
H726        H  0.69014119  0.07954033  0.93760640     0.07700
H727        H  0.65005579  0.06926991  0.92952755     0.08900
Cu728      Cu  0.68682842  0.05998082  0.96292711     0.44200
Cu729      Cu  0.65282991  0.05222243  0.95831602     0.42000
Cu730      Cu  0.67196016  0.03907337  0.98699110     0.43900
N731        N  0.69742941  0.05105559  0.97776465    -0.34700
N732        N  0.69216473  0.04347047  0.98698807    -0.28900
C733        C  0.70179766  0.03970208  0.99538295    -0.05000
C734        C  0.71367290  0.04509610  0.99105124     0.07200
C735        C  0.71042271  0.05221066  0.97985485     0.01000
H736        H  0.70028924  0.03346707  0.00393814     0.08600
H737        H  0.71695564  0.05811426  0.97380247     0.07700
N738        N  0.65157913  0.03676902  0.98428037    -0.36100
N739        N  0.64483423  0.04119638  0.97398153    -0.28300
C740        C  0.63199733  0.03820317  0.97572482    -0.03500
C741        C  0.63047537  0.03169671  0.98772509     0.05100
C742        C  0.64314719  0.03097445  0.99282041     0.03200
H743        H  0.62425826  0.04101968  0.96895201     0.08300
H744        H  0.64605482  0.02664252  0.00214486     0.07100
N745        N  0.85683523  0.06748556  0.07418145    -0.27300
N746        N  0.84395119  0.06911292  0.07336472    -0.35200
C747        C  0.83977023  0.07661095  0.08346273     0.01000
C748        C  0.85048770  0.07993380  0.09118201     0.07100
C749        C  0.86120146  0.07387188  0.08504991    -0.06000
H750        H  0.82957077  0.07926834  0.08513555     0.07700
H751        H  0.87139553  0.07424636  0.08812257     0.08900
Cu752      Cu  0.83231810  0.06131253  0.05864232     0.44200
Cu753      Cu  0.86720239  0.05703092  0.05970763     0.42000
Cu754      Cu  0.84732629  0.04687269  0.03030658     0.43900
N755        N  0.82154602  0.05419941  0.04293624    -0.34700
N756        N  0.82692894  0.04924563  0.03210339    -0.28900
C757        C  0.81721813  0.04597106  0.02363054    -0.05000
C758        C  0.80516194  0.04889939  0.02955192     0.07200
C759        C  0.80837073  0.05410041  0.04178168     0.01000
H760        H  0.81880600  0.04158828  0.01399290     0.08600
H761        H  0.80164215  0.05779330  0.04924513     0.07700
N762        N  0.86762534  0.04399905  0.03244841    -0.36100
N763        N  0.87454673  0.04722623  0.04306167    -0.28300
C764        C  0.88709167  0.04324864  0.04131386    -0.03500
C765        C  0.88822012  0.03729455  0.02901628     0.05100
C766        C  0.87567645  0.03801500  0.02366594     0.03200
H767        H  0.89485370  0.04470794  0.04847234     0.08300
H768        H  0.87252339  0.03416837  0.01420862     0.07100
C769        C  0.52771530  0.98715767  0.03461648     0.03100
C770        C  0.52299041  0.99383502  0.04591489    -0.13000
C771        C  0.52979450  0.00478339  0.05121075     0.00600
C772        C  0.54141190  0.00911272  0.04482000    -0.11500
C773        C  0.54620353  0.00268755  0.03338527     0.03100
C774        C  0.53930448  0.99170554  0.02847595    -0.11000
H775        H  0.51402329  0.99043317  0.05063990     0.08700
H776        H  0.54674898  0.01748090  0.04874452     0.06200
H777        H  0.54297214  0.98666954  0.01974825     0.06100
C778        C  0.54480679  0.04921582  0.48825523     0.03100
C779        C  0.53843837  0.05987039  0.49459053    -0.13000
C780        C  0.52687225  0.06554819  0.48929398     0.00600
C781        C  0.52165002  0.06020654  0.47755170    -0.11500
C782        C  0.52770033  0.04936252  0.47131481     0.03100
C783        C  0.53915793  0.04389194  0.47676463    -0.11000
H784        H  0.54268671  0.06393832  0.50350848     0.08700
H785        H  0.51300484  0.06459756  0.47308348     0.06200
H786        H  0.54382982  0.03560124  0.47184601     0.06100
N787        N  0.68858707  0.72909692  0.91326508    -0.27300
N788        N  0.69150537  0.72503714  0.92532198    -0.35200
C789        C  0.68156792  0.71775935  0.93014744     0.01000
C790        C  0.67170639  0.71715592  0.92076504     0.07100
C791        C  0.67649092  0.72452466  0.91014906    -0.06000
H792        H  0.68131826  0.71377134  0.94007088     0.07700
H793        H  0.67150326  0.72654551  0.90092793     0.08900
Cu794      Cu  0.70792056  0.73083972  0.93564573     0.44200
Cu795      Cu  0.70160800  0.74091604  0.90227024     0.42000
Cu796      Cu  0.73072768  0.75301077  0.92091699     0.43900
N797        N  0.72268501  0.73984422  0.94617619    -0.34700
N798        N  0.73125588  0.74813475  0.94093747    -0.28900
C799        C  0.73922182  0.75260310  0.95060108    -0.05000
C800        C  0.73529503  0.74691310  0.96248607     0.07200
C801        C  0.72479437  0.73888046  0.95922885     0.01000
H802        H  0.74703447  0.75971030  0.94914179     0.08600
H803        H  0.71903019  0.73277807  0.96584310     0.07700
N804        N  0.72771979  0.75576167  0.90069777    -0.36100
N805        N  0.71732949  0.75161412  0.89398794    -0.28300
C806        C  0.71891141  0.75497742  0.88116424    -0.03500
C807        C  0.73088183  0.76148985  0.87967055     0.05100
C808        C  0.73612203  0.76177835  0.89232874     0.03200
H809        H  0.71195317  0.75258018  0.87345245     0.08300
H810        H  0.74539350  0.76606709  0.89532745     0.07100
N811        N  0.82008177  0.73036546  0.10224576    -0.27300
N812        N  0.81938207  0.73046124  0.08918883    -0.35200
C813        C  0.82899325  0.72290345  0.08409797     0.01000
C814        C  0.83634440  0.71780636  0.09435832     0.07100
C815        C  0.83049694  0.72282420  0.10578780    -0.06000
H816        H  0.83068682  0.72149120  0.07361420     0.07700
H817        H  0.83351575  0.72103088  0.11588371     0.08900
Cu818      Cu  0.80563544  0.74072668  0.07841254     0.44200
Cu819      Cu  0.80616356  0.74042135  0.11402031     0.42000
Cu820      Cu  0.77767677  0.75360841  0.09528086     0.43900
N821        N  0.78985886  0.74876835  0.06860499    -0.34700
N822        N  0.77908221  0.75291594  0.07467620    -0.28900
C823        C  0.77003447  0.75605504  0.06546655    -0.05000
C824        C  0.77549491  0.75385034  0.05301970     0.07200
C825        C  0.78809752  0.74927693  0.05546044     0.01000
H826        H  0.76015606  0.75944519  0.06767943     0.08600
H827        H  0.79521053  0.74579873  0.04825454     0.07700
N828        N  0.77995576  0.75524879  0.11575869    -0.36100
N829        N  0.79027846  0.75090757  0.12247376    -0.28300
C830        C  0.78886409  0.75455394  0.13524851    -0.03500
C831        C  0.77708468  0.76146852  0.13671762     0.05100
C832        C  0.77173500  0.76162462  0.12409997     0.03200
H833        H  0.79595074  0.75235246  0.14290666     0.08300
H834        H  0.76271392  0.76642692  0.12106204     0.07100
N835        N  0.56527055  0.68007762  0.96099275    -0.27300
N836        N  0.56340762  0.69275956  0.95861985    -0.35200
C837        C  0.57334005  0.69740324  0.95122362     0.01000
C838        C  0.58212890  0.68727933  0.94884604     0.07100
C839        C  0.57678058  0.67637572  0.95528357    -0.06000
H840        H  0.57437333  0.70761570  0.94828751     0.07700
H841        H  0.58096201  0.66656597  0.95582383     0.08900
Cu842      Cu  0.54823105  0.70392120  0.96620543     0.44200
Cu843      Cu  0.55144529  0.66922167  0.97196369     0.42000
Cu844      Cu  0.52143644  0.68879511  0.98206197     0.43900
N845        N  0.53272425  0.71469300  0.97370070    -0.34700
N846        N  0.52228017  0.70921313  0.97921155    -0.28900
C847        C  0.51374443  0.71885509  0.98268055    -0.05000
C848        C  0.51925422  0.73098315  0.97930310     0.07200
C849        C  0.53129577  0.72785858  0.97363043     0.01000
H850        H  0.50436020  0.71717982  0.98750142     0.08600
H851        H  0.53844024  0.73462423  0.96949610     0.07700
N852        N  0.52452543  0.66871295  0.98577511    -0.36100
N853        N  0.53520064  0.66184523  0.98255446    -0.28300
C854        C  0.53385908  0.64946137  0.98724043    -0.03500
C855        C  0.52178089  0.64840419  0.99367422     0.05100
C856        C  0.51617787  0.66083544  0.99248064     0.03200
H857        H  0.54115787  0.64177152  0.98597135     0.08300
H858        H  0.50681599  0.66407998  0.99647539     0.07100
N859        N  0.43886558  0.87592271  0.96198312    -0.27300
N860        N  0.44023499  0.86315016  0.95976334    -0.35200
C861        C  0.42997383  0.85875868  0.95269716     0.01000
C862        C  0.42150429  0.86918693  0.95031458     0.07100
C863        C  0.42742614  0.87996805  0.95644778    -0.06000
H864        H  0.42858999  0.84855893  0.94987408     0.07700
H865        H  0.42371569  0.88997338  0.95682619     0.08900
Cu866      Cu  0.45551108  0.85182229  0.96697694     0.44200
Cu867      Cu  0.45327700  0.88646816  0.97248672     0.42000
Cu868      Cu  0.48221384  0.86633427  0.98427313     0.43900
N869        N  0.47076033  0.84080644  0.97470823    -0.34700
N870        N  0.48098132  0.84588239  0.98094169    -0.28900
C871        C  0.48913993  0.83590524  0.98443663    -0.05000
C872        C  0.48360764  0.82401609  0.98029819     0.07200
C873        C  0.47198178  0.82763869  0.97416544     0.01000
H874        H  0.49827933  0.83717717  0.98976069     0.08600
H875        H  0.46493812  0.82119322  0.96943580     0.07700
N876        N  0.48000600  0.88687206  0.98659836    -0.36100
N877        N  0.46972796  0.89393907  0.98265891    -0.28300
C878        C  0.47161629  0.90663368  0.98621335    -0.03500
C879        C  0.48365028  0.90773230  0.99264121     0.05100
C880        C  0.48864540  0.89495837  0.99264198     0.03200
H881        H  0.46471444  0.91451304  0.98418155     0.08300
H882        H  0.49780544  0.89167584  0.99698813     0.07100
N883        N  0.94118267  0.67622441  0.05638828    -0.27300
N884        N  0.94354735  0.68859053  0.05979655    -0.35200
C885        C  0.93361837  0.69306750  0.06738888     0.01000
C886        C  0.92437286  0.68316120  0.06872219     0.07100
C887        C  0.92945224  0.67260919  0.06155384    -0.06000
H888        H  0.93275544  0.70312007  0.07090045     0.07700
H889        H  0.92481860  0.66314212  0.05993836     0.08900
Cu890      Cu  0.95889359  0.69976785  0.05237943     0.44200
Cu891      Cu  0.95409920  0.66523949  0.04453920     0.42000
Cu892      Cu  0.98272558  0.68357657  0.03197875     0.43900
N893        N  0.97367723  0.70978282  0.04251767    -0.34700
N894        N  0.98270306  0.70383469  0.03518354    -0.28900
C895        C  0.99106101  0.71296925  0.03037567    -0.05000
C896        C  0.98696026  0.72527644  0.03477592     0.07200
C897        C  0.97589109  0.72285213  0.04243221     0.01000
H898        H  0.99941960  0.71081555  0.02405426     0.08600
H899        H  0.97003174  0.73001716  0.04779670     0.07700
N900        N  0.98013850  0.66334397  0.02977092    -0.36100
N901        N  0.96969211  0.65671928  0.03395069    -0.28300
C902        C  0.97125104  0.64389202  0.03076769    -0.03500
C903        C  0.98330095  0.64233786  0.02440016     0.05100
C904        C  0.98862384  0.65490913  0.02396624     0.03200
H905        H  0.96426125  0.63621444  0.03320947     0.08300
H906        H  0.99796284  0.65777492  0.01965349     0.07100
N907        N  0.07201373  0.86452564  0.05757138    -0.27300
N908        N  0.07007307  0.85184083  0.05981112    -0.35200
C909        C  0.07982419  0.84712598  0.06736512     0.01000
C910        C  0.08850324  0.85726753  0.07004069     0.07100
C911        C  0.08327008  0.86820017  0.06359719    -0.06000
H912        H  0.08077746  0.83688088  0.07020058     0.07700
H913        H  0.08734383  0.87805050  0.06325899     0.08900
Cu914      Cu  0.05511529  0.84089772  0.05165605     0.44200
Cu915      Cu  0.05879148  0.87571902  0.04648681     0.42000
Cu916      Cu  0.03042839  0.85679731  0.03297819     0.43900
N917        N  0.04082327  0.83066294  0.04159253    -0.34700
N918        N  0.03140472  0.83643821  0.03473023    -0.28900
C919        C  0.02348167  0.82708294  0.02964225    -0.05000
C920        C  0.02831831  0.81483607  0.03341439     0.07200
C921        C  0.03931801  0.81753735  0.04097692     0.01000
H922        H  0.01487501  0.82905370  0.02367047     0.08600
H923        H  0.04557543  0.81050862  0.04600813     0.07700
N924        N  0.03238281  0.87716283  0.03237231    -0.36100
N925        N  0.04263317  0.88392809  0.03676325    -0.28300
C926        C  0.04064092  0.89681615  0.03423787    -0.03500
C927        C  0.02854136  0.89823488  0.02807407     0.05100
C928        C  0.02359773  0.88556803  0.02710187     0.03200
H929        H  0.04745788  0.90458477  0.03683364     0.08300
H930        H  0.01441419  0.88259597  0.02259726     0.07100
N931        N  0.31584346  0.82994188  0.91323272    -0.27300
N932        N  0.31259454  0.83493610  0.92487058    -0.35200
C933        C  0.32193687  0.84343209  0.92878910     0.01000
C934        C  0.33178265  0.84379437  0.91928956     0.07100
C935        C  0.32758356  0.83505630  0.90952748    -0.06000
H936        H  0.32208002  0.84813731  0.93839923     0.07700
H937        H  0.33289321  0.83225212  0.90065817     0.08900
Cu938      Cu  0.29733990  0.82782507  0.93637705     0.44200
Cu939      Cu  0.30398574  0.81571285  0.90399453     0.42000
Cu940      Cu  0.27858341  0.80006933  0.92550635     0.43900
N941        N  0.28537374  0.81693526  0.94879866    -0.34700
N942        N  0.27879004  0.80630469  0.94518295    -0.28900
C943        C  0.27261905  0.80127046  0.95591747    -0.05000
C944        C  0.27541464  0.80926604  0.96672477     0.07200
C945        C  0.28355151  0.81903530  0.96177120     0.01000
H946        H  0.26632810  0.79266441  0.95579713     0.08600
H947        H  0.28799409  0.82705295  0.96722800     0.07700
N948        N  0.28004032  0.79744496  0.90505268    -0.36100
N949        N  0.28923109  0.80277374  0.89739837    -0.28300
C950        C  0.28706357  0.79902921  0.88478987    -0.03500
C951        C  0.27593328  0.79107851  0.88441468     0.05100
C952        C  0.27176870  0.79033962  0.89747586     0.03200
H953        H  0.29299460  0.80215158  0.87644837     0.08300
H954        H  0.26335851  0.78496237  0.90125120     0.07100
N955        N  0.19478833  0.82082590  0.11012597    -0.27300
N956        N  0.19832985  0.82646492  0.09887441    -0.35200
C957        C  0.18829641  0.83371054  0.09424368     0.01000
C958        C  0.17777307  0.83262302  0.10289084     0.07100
C959        C  0.18220603  0.82428763  0.11286320    -0.06000
H960        H  0.18846591  0.83887313  0.08487700     0.07700
H961        H  0.17668677  0.82091846  0.12139102     0.08900
Cu962      Cu  0.21580156  0.82288658  0.08898979     0.44200
Cu963      Cu  0.20768845  0.80869779  0.12073365     0.42000
Cu964      Cu  0.23749909  0.79881124  0.10188145     0.43900
N965        N  0.23112312  0.81502245  0.07804973    -0.34700
N966        N  0.23880124  0.80544875  0.08241179    -0.28900
C967        C  0.24675248  0.80145078  0.07244722    -0.05000
C968        C  0.24398213  0.80905152  0.06137614     0.07200
C969        C  0.23405302  0.81754994  0.06534278     0.01000
H970        H  0.25400231  0.79365307  0.07320840     0.08600
H971        H  0.22894459  0.82469335  0.05927109     0.07700
N972        N  0.23448830  0.79525647  0.12199170    -0.36100
N973        N  0.22379566  0.79858189  0.12877411    -0.28300
C974        C  0.22555085  0.79521066  0.14155571    -0.03500
C975        C  0.23797365  0.78959424  0.14294692     0.05100
C976        C  0.24328970  0.78980356  0.13028462     0.03200
H977        H  0.21847508  0.79718109  0.14934284     0.08300
H978        H  0.25294612  0.78638679  0.12727075     0.07100
C979        C  0.02876435  0.54432292  0.96927859     0.03100
C980        C  0.02241797  0.55512395  0.97528427    -0.13000
C981        C  0.02730310  0.56081217  0.98696040     0.00600
C982        C  0.03883824  0.55557780  0.99263121    -0.11500
C983        C  0.04540350  0.54469118  0.98690502     0.03100
C984        C  0.04013974  0.53906218  0.97526830    -0.11000
H985        H  0.01365051  0.55920472  0.97076620     0.08700
H986        H  0.04275590  0.56009754  0.00148268     0.06200
H987        H  0.04497930  0.53066908  0.97073449     0.06100
C988        C  0.46231319  0.55224836  0.03629161     0.03100
C989        C  0.46858278  0.56349719  0.03112511    -0.13000
C990        C  0.48003145  0.56861382  0.03702446     0.00600
C991        C  0.48525024  0.56219279  0.04820429    -0.11500
C992        C  0.47917167  0.55086958  0.05353350     0.03100
C993        C  0.46762327  0.54604779  0.04753414    -0.11000
H994        H  0.46457938  0.56820037  0.02238905     0.08700
H995        H  0.49413107  0.56598243  0.05273109     0.06200
H996        H  0.46281268  0.53737598  0.05152588     0.06100
N997        N  0.90561060  0.71748550  0.70149436    -0.27300
N998        N  0.91737217  0.72088442  0.69705464    -0.35200
C999        C  0.92240628  0.71104896  0.68973328     0.01000
C1000       C  0.91350323  0.70074805  0.68963291     0.07100
C1001       C  0.90290396  0.70518688  0.69719734    -0.06000
H1002       H  0.93237750  0.71091487  0.68590373     0.07700
H1003       H  0.89423487  0.69963475  0.69999050     0.08900
Cu1004     Cu  0.92767422  0.73685092  0.70401071     0.44200
Cu1005     Cu  0.89518164  0.72948602  0.71466417     0.42000
Cu1006     Cu  0.91502702  0.75598715  0.73081686     0.43900
N1007       N  0.93918857  0.74949912  0.71485696    -0.34700
N1008       N  0.93482782  0.75683997  0.72475667    -0.28900
C1009       C  0.94518014  0.76335089  0.73003235    -0.05000
C1010       C  0.95653523  0.75960773  0.72322595     0.07200
C1011       C  0.95228513  0.75083850  0.71371449     0.01000
H1012       H  0.94459510  0.76982756  0.73852648     0.08600
H1013       H  0.95831494  0.74559904  0.70658467     0.07700
N1014       N  0.89489272  0.75243748  0.73420692    -0.36100
N1015       N  0.88780068  0.74327005  0.72817413    -0.28300
C1016       C  0.87515890  0.74432219  0.73217833    -0.03500
C1017       C  0.87418997  0.75451036  0.74128213     0.05100
C1018       C  0.88691848  0.75937516  0.74233672     0.03200
H1019       H  0.86724909  0.73808250  0.72871188     0.08300
H1020       H  0.89009255  0.76765290  0.74827940     0.07100
N1021       N  0.10179291  0.83323174  0.71248033    -0.27300
N1022       N  0.09045881  0.82980057  0.70711959    -0.35200
C1023       C  0.08604398  0.83960208  0.69940965     0.01000
C1024       C  0.09493292  0.84990403  0.69992391     0.07100
C1025       C  0.10484591  0.84551529  0.70834578    -0.06000
H1026       H  0.07658533  0.83952622  0.69450956     0.07700
H1027       H  0.11344637  0.85094759  0.71150053     0.08900
Cu1028     Cu  0.08006738  0.81321937  0.71231053     0.44200
Cu1029     Cu  0.11166082  0.82081038  0.72569335     0.42000
Cu1030     Cu  0.09243605  0.79153853  0.73697276     0.43900
N1031       N  0.06852876  0.79920098  0.72133070    -0.34700
N1032       N  0.07283750  0.79091620  0.73043343    -0.28900
C1033       C  0.06258233  0.78348378  0.73459953    -0.05000
C1034       C  0.05133578  0.78757953  0.72792091     0.07200
C1035       C  0.05553309  0.79753852  0.71962805     0.01000
H1036       H  0.06315426  0.77601854  0.74222398     0.08600
H1037       H  0.04954605  0.80326842  0.71290000     0.07700
N1038       N  0.11231399  0.79513020  0.74142928    -0.36100
N1039       N  0.11908792  0.80563042  0.73758953    -0.28300
C1040       C  0.13155262  0.80454240  0.74204130    -0.03500
C1041       C  0.13280648  0.79277831  0.74895882     0.05100
C1042       C  0.12035967  0.78711961  0.74834071     0.03200
H1043       H  0.13924252  0.81164773  0.74002336     0.08300
H1044       H  0.11732673  0.77780117  0.75256655     0.07100
N1045       N  0.95477301  0.59096218  0.66162825    -0.27300
N1046       N  0.95194332  0.58888110  0.67422778    -0.35200
C1047       C  0.94544772  0.59933710  0.67914729     0.01000
C1048       C  0.94411990  0.60863749  0.66923968     0.07100
C1049       C  0.95018270  0.60298821  0.65823259    -0.06000
H1050       H  0.94249562  0.60031267  0.68939800     0.07700
H1051       H  0.95133823  0.60735040  0.64853309     0.08900
Cu1052     Cu  0.95828478  0.57282981  0.68489712     0.44200
Cu1053     Cu  0.96522259  0.57723467  0.65012785     0.42000
Cu1054     Cu  0.97644844  0.54771710  0.66840092     0.43900
N1055       N  0.96739230  0.55766362  0.69482181    -0.34700
N1056       N  0.97409522  0.54818928  0.68887087    -0.28900
C1057       C  0.97902846  0.54003617  0.69815075    -0.05000
C1058       C  0.97528947  0.54472422  0.71054894     0.07200
C1059       C  0.96790763  0.55592143  0.70796582     0.01000
H1060       H  0.98504186  0.53147184  0.69601215     0.08600
H1061       H  0.96311549  0.56232873  0.71506837     0.07700
N1062       N  0.97904722  0.55065246  0.64815697    -0.36100
N1063       N  0.97544037  0.56134978  0.64157227    -0.28300
C1064       C  0.97953453  0.56016052  0.62890427    -0.03500
C1065       C  0.98594725  0.54811628  0.62741118     0.05100
C1066       C  0.98537007  0.54239994  0.63985803     0.03200
H1067       H  0.97795793  0.56754497  0.62134810     0.08300
H1068       H  0.98963077  0.53307957  0.64283588     0.07100
N1069       N  0.96868641  0.45713145  0.85140915    -0.27300
N1070       N  0.96837612  0.45808192  0.83838392    -0.35200
C1071       C  0.96240155  0.44748193  0.83328970     0.01000
C1072       C  0.95872859  0.43926795  0.84353131     0.07100
C1073       C  0.96297957  0.44560681  0.85495746    -0.06000
H1074       H  0.96068276  0.44597982  0.82283696     0.07700
H1075       H  0.96153731  0.44236215  0.86505527     0.08900
Cu1076     Cu  0.97499476  0.47401062  0.82779027     0.44200
Cu1077     Cu  0.97599792  0.47265135  0.86291580     0.42000
Cu1078     Cu  0.98382219  0.50361356  0.84397465     0.43900
N1079       N  0.97961529  0.49089574  0.81763127    -0.34700
N1080       N  0.98251791  0.50220722  0.82338180    -0.28900
C1081       C  0.98437287  0.51138897  0.81388394    -0.05000
C1082       C  0.98263566  0.50541766  0.80160652     0.07200
C1083       C  0.97960720  0.49243519  0.80446590     0.01000
H1084       H  0.98688035  0.52158465  0.81576965     0.08600
H1085       H  0.97720743  0.48468478  0.79752368     0.07700
N1086       N  0.98578967  0.50118440  0.86444261    -0.36100
N1087       N  0.98330601  0.49018285  0.87108683    -0.28300
C1088       C  0.98650430  0.49205230  0.88387807    -0.03500
C1089       C  0.99119087  0.50481249  0.88545402     0.05100
C1090       C  0.99052193  0.51028752  0.87289417     0.03200
H1091       H  0.98553758  0.48458842  0.89146283     0.08300
H1092       H  0.99368052  0.52005290  0.86997548     0.07100
N1093       N  0.06301674  0.95978190  0.66226142    -0.27300
N1094       N  0.06554988  0.96183669  0.67489330    -0.35200
C1095       C  0.07146685  0.95124334  0.68006228     0.01000
C1096       C  0.07274273  0.94179905  0.67031724     0.07100
C1097       C  0.06721724  0.94751203  0.65908141    -0.06000
H1098       H  0.07389017  0.95023001  0.69042860     0.07700
H1099       H  0.06606022  0.94299226  0.64945824     0.08900
Cu1100     Cu  0.05917709  0.97774133  0.68553461     0.44200
Cu1101     Cu  0.05316908  0.97413634  0.65107541     0.42000
Cu1102     Cu  0.04167652  0.00360045  0.67115458     0.43900
N1103       N  0.05084681  0.99233123  0.69671779    -0.34700
N1104       N  0.04455979  0.00251603  0.69161776    -0.28900
C1105       C  0.04040486  0.01033341  0.70163450    -0.05000
C1106       C  0.04409997  0.00447494  0.71350850     0.07200
C1107       C  0.05067821  0.99310408  0.70994730     0.01000
H1108       H  0.03483432  0.01935762  0.70040920     0.08600
H1109       H  0.05514115  0.98594040  0.71648884     0.07700
N1110       N  0.03914158  0.00091959  0.65075676    -0.36100
N1111       N  0.04297669  0.99058034  0.64365875    -0.28300
C1112       C  0.03912818  0.99237128  0.63101371    -0.03500
C1113       C  0.03260965  0.00438714  0.63004491     0.05100
C1114       C  0.03285825  0.00947000  0.64278635     0.03200
H1115       H  0.04102637  0.98543478  0.62309126     0.08300
H1116       H  0.02854827  0.01864478  0.64615335     0.07100
N1117       N  0.06392791  0.07764044  0.85932469    -0.27300
N1118       N  0.06822738  0.07473862  0.84733027    -0.35200
C1119       C  0.07637229  0.08427706  0.84311523     0.01000
C1120       C  0.07715849  0.09379753  0.85286586     0.07100
C1121       C  0.06910413  0.08928824  0.86302623    -0.06000
H1122       H  0.08052320  0.08477359  0.83325009     0.07700
H1123       H  0.06676552  0.09433204  0.87217683     0.08900
Cu1124     Cu  0.06079910  0.05945861  0.83627740     0.44200
Cu1125     Cu  0.05059270  0.06564668  0.86923565     0.42000
Cu1126     Cu  0.03666045  0.03768746  0.84983652     0.43900
N1127       N  0.05043347  0.04614166  0.82506115    -0.34700
N1128       N  0.04152359  0.03788209  0.82975569    -0.28900
C1129       C  0.03657585  0.03083809  0.81957375    -0.05000
C1130       C  0.04260005  0.03510746  0.80795034     0.07200
C1131       C  0.05132040  0.04477688  0.81191301     0.01000
H1132       H  0.02900203  0.02339583  0.82052633     0.08600
H1133       H  0.05795902  0.05041487  0.80572488     0.07700
N1134       N  0.03410418  0.04066229  0.87013695    -0.36100
N1135       N  0.03885515  0.05073079  0.87696602    -0.28300
C1136       C  0.03556040  0.04926611  0.88978927    -0.03500
C1137       C  0.02845639  0.03768701  0.89119181     0.05100
C1138       C  0.02771966  0.03254040  0.87848791     0.03200
H1139       H  0.03853318  0.05595823  0.89755936     0.08300
H1140       H  0.02296410  0.02349272  0.87546911     0.07100
N1141       N  0.10839896  0.20177314  0.81251716    -0.27300
N1142       N  0.09575698  0.20341358  0.81522009    -0.35200
C1143       C  0.09140919  0.19326681  0.82247368     0.01000
C1144       C  0.10173189  0.18460899  0.82451283     0.07100
C1145       C  0.11241098  0.19029509  0.81798517    -0.06000
H1146       H  0.08124607  0.19204640  0.82548719     0.07700
H1147       H  0.12228392  0.18633551  0.81713598     0.08900
Cu1148     Cu  0.08413672  0.21845856  0.80822351     0.44200
Cu1149     Cu  0.11892102  0.21556533  0.80131539     0.42000
Cu1150     Cu  0.09841069  0.24388545  0.78958311     0.43900
N1151       N  0.07299482  0.23322776  0.79996221    -0.34700
N1152       N  0.07819409  0.24300966  0.79311900    -0.28900
C1153       C  0.06842791  0.25110312  0.78914199    -0.05000
C1154       C  0.05650719  0.24600190  0.79361868     0.07200
C1155       C  0.05985209  0.23465672  0.80044221     0.01000
H1156       H  0.06987993  0.25989732  0.78325757     0.08600
H1157       H  0.05326112  0.22798234  0.80554620     0.07700
N1158       N  0.11876502  0.24214364  0.78724451    -0.36100
N1159       N  0.12610373  0.23205161  0.79113848    -0.28300
C1160       C  0.13880100  0.23459980  0.78810216    -0.03500
C1161       C  0.13952721  0.24691409  0.78213556     0.05100
C1162       C  0.12660137  0.25132615  0.78174976     0.03200
H1163       H  0.14694431  0.22812893  0.79047094     0.08300
H1164       H  0.12307657  0.26059431  0.77780512     0.07100
N1165       N  0.91683260  0.33346592  0.80760394    -0.27300
N1166       N  0.92924966  0.33105150  0.81066295    -0.35200
C1167       C  0.93412508  0.34117636  0.81762033     0.01000
C1168       C  0.92441473  0.35063143  0.81897052     0.07100
C1169       C  0.91354609  0.34547400  0.81240886    -0.06000
H1170       H  0.94426329  0.34190690  0.82081717     0.07700
H1171       H  0.90405973  0.35016595  0.81107580     0.08900
Cu1172     Cu  0.93980758  0.31505660  0.80398117     0.44200
Cu1173     Cu  0.90563229  0.31986173  0.79683034     0.42000
Cu1174     Cu  0.92408776  0.29024597  0.78493977     0.43900
N1175       N  0.94995785  0.29959754  0.79558626    -0.34700
N1176       N  0.94430967  0.29011703  0.78868346    -0.28900
C1177       C  0.95365682  0.28138015  0.78495058    -0.05000
C1178       C  0.96575065  0.28576274  0.78962572     0.07200
C1179       C  0.96296293  0.29733985  0.79630527     0.01000
H1180       H  0.95180838  0.27257541  0.77920039     0.08600
H1181       H  0.96983087  0.30354772  0.80158939     0.07700
N1182       N  0.90381649  0.29319551  0.78282263    -0.36100
N1183       N  0.89726471  0.30378828  0.78685982    -0.28300
C1184       C  0.88445637  0.30233974  0.78369987    -0.03500
C1185       C  0.88279084  0.29025925  0.77744400     0.05100
C1186       C  0.89531185  0.28476478  0.77710078     0.03200
H1187       H  0.87688125  0.30952878  0.78594537     0.08300
H1188       H  0.89811728  0.27538919  0.77280853     0.07100
C1189       C  0.97451369  0.04661614  0.53186764     0.03100
C1190       C  0.98044785  0.04045178  0.54285692    -0.13000
C1191       C  0.99170637  0.04586797  0.54884252     0.00600
C1192       C  0.99722588  0.05743950  0.54350865    -0.11500
C1193       C  0.99157691  0.06373356  0.53249978     0.03100
C1194       C  0.98016041  0.05829780  0.52681438    -0.11000
H1195       H  0.97620725  0.03150562  0.54688248     0.08700
H1196       H  0.00593594  0.06163218  0.54802081     0.06200
H1197       H  0.97567773  0.06318014  0.51842590     0.06100
C1198       C  0.03094819  0.48865836  0.53179654     0.03100
C1199       C  0.02526669  0.49536848  0.54263334    -0.13000
C1200       C  0.03097297  0.50690576  0.54784109     0.00600
C1201       C  0.04254669  0.51184135  0.54194320    -0.11500
C1202       C  0.04860736  0.50514537  0.53134956     0.03100
C1203       C  0.04281394  0.49353930  0.52638041    -0.11000
H1204       H  0.01630406  0.49159438  0.54706674     0.08700
H1205       H  0.04714673  0.52063629  0.54589096     0.06200
H1206       H  0.04739178  0.48855446  0.51806454     0.06100
C1207       C  0.97261774  0.99959653  0.99138871     0.03100
C1208       C  0.97911273  0.00535814  0.98049732    -0.13000
C1209       C  0.99042314  0.99946540  0.97503579     0.00600
C1210       C  0.99545084  0.98790060  0.98072646    -0.11500
C1211       C  0.98931202  0.98212013  0.99175249     0.03100
C1212       C  0.97788170  0.98802894  0.99700141    -0.11000
H1213       H  0.97521083  0.01425942  0.97604665     0.08700
H1214       H  0.00405899  0.98326148  0.97636150     0.06200
H1215       H  0.97296146  0.98349251  0.00535979     0.06100
C1216       C  0.79228707  0.79554949  0.78068225     0.03100
C1217       C  0.78706471  0.80635372  0.77373725    -0.13000
C1218       C  0.77607251  0.81327304  0.77866208     0.00600
C1219       C  0.76994303  0.80888682  0.79037640    -0.11500
C1220       C  0.77482724  0.79785680  0.79728586     0.03100
C1221       C  0.78620151  0.79143187  0.79249678    -0.11000
H1222       H  0.79186353  0.80966979  0.76473637     0.08700
H1223       H  0.76135793  0.81407797  0.79411759     0.06200
H1224       H  0.79010979  0.78296889  0.79773912     0.06100
C1225       C  0.21431539  0.75089859  0.78853877     0.03100
C1226       C  0.22072674  0.75591680  0.79978625    -0.13000
C1227       C  0.23191461  0.74958353  0.80498883     0.00600
C1228       C  0.23668255  0.73808080  0.79878597    -0.11500
C1229       C  0.23038485  0.73283359  0.78755339     0.03100
C1230       C  0.21920451  0.73933899  0.78254096    -0.11000
H1231       H  0.21702561  0.76479468  0.80449118     0.08700
H1232       H  0.24537011  0.73325567  0.80269410     0.06200
H1233       H  0.21426739  0.73539710  0.77392055     0.06100
C1234       C  0.78327285  0.23278428  0.74007087     0.03100
C1235       C  0.77705068  0.23831337  0.72896242    -0.13000
C1236       C  0.78226961  0.24950014  0.72260999     0.00600
C1237       C  0.79397075  0.25512593  0.72750023    -0.11500
C1238       C  0.80033647  0.24979843  0.73868374     0.03100
C1239       C  0.79488151  0.23861483  0.74486091    -0.11000
H1240       H  0.76806417  0.23391107  0.72526616     0.08700
H1241       H  0.79805635  0.26373713  0.72265695     0.06200
H1242       H  0.79964008  0.23446522  0.75349012     0.06100
C1243       C  0.73762136  0.80361627  0.21903130     0.03100
C1244       C  0.74337174  0.81463315  0.22530121    -0.13000
C1245       C  0.73777571  0.82012980  0.23685691     0.00600
C1246       C  0.72627943  0.81438508  0.24214273    -0.11500
C1247       C  0.72029577  0.80341214  0.23607446     0.03100
C1248       C  0.72605482  0.79812537  0.22450377    -0.11000
H1249       H  0.75223746  0.81894500  0.22116723     0.08700
H1250       H  0.72192146  0.81852447  0.25102379     0.06200
H1251       H  0.72155054  0.78967931  0.21976783     0.06100
C1252       C  0.72101805  0.25685545  0.27951247     0.03100
C1253       C  0.72710470  0.26190099  0.29097296    -0.13000
C1254       C  0.73853138  0.25589915  0.29621812     0.00600
C1255       C  0.74389182  0.24485149  0.28967977    -0.11500
C1256       C  0.73806986  0.23974556  0.27816050     0.03100
C1257       C  0.72661760  0.24579459  0.27317251    -0.11000
H1258       H  0.72281565  0.27038114  0.29590743     0.08700
H1259       H  0.75259397  0.24009435  0.29364144     0.06200
H1260       H  0.72198112  0.24182247  0.26439082     0.06100
C1261       C  0.23495378  0.29503025  0.72732009     0.03100
C1262       C  0.24015966  0.30677981  0.73251949    -0.13000
C1263       C  0.23508469  0.31235329  0.74423449     0.00600
C1264       C  0.22466093  0.30592635  0.75081370    -0.11500
C1265       C  0.21931943  0.29413218  0.74579689     0.03100
C1266       C  0.22453759  0.28878232  0.73403769    -0.11000
H1267       H  0.24819227  0.31162728  0.72738525     0.08700
H1268       H  0.22061809  0.31015962  0.75979963     0.06200
H1269       H  0.22042641  0.27976316  0.73005586     0.06100
C1270       C  0.28023879  0.74320895  0.24602753     0.03100
C1271       C  0.29119474  0.74941661  0.25174049    -0.13000
C1272       C  0.29680435  0.76075687  0.24603848     0.00600
C1273       C  0.29118304  0.76602528  0.23444905    -0.11500
C1274       C  0.28017193  0.75992992  0.22853675     0.03100
C1275       C  0.27480298  0.74855841  0.23443938    -0.11000
H1276       H  0.29555543  0.74526705  0.26058302     0.08700
H1277       H  0.29549793  0.77470133  0.22992989     0.06200
H1278       H  0.26639914  0.74378680  0.22992162     0.06100
C1279       C  0.49025096  0.48999313  0.49146501     0.03100
C1280       C  0.47933183  0.49541773  0.49815934    -0.13000
C1281       C  0.47323134  0.50705157  0.49359763     0.00600
C1282       C  0.47813809  0.51318131  0.48206924    -0.11500
C1283       C  0.48900073  0.50787865  0.47514470     0.03100
C1284       C  0.49505821  0.49636183  0.48006224    -0.11000
H1285       H  0.47554358  0.49053077  0.50691252     0.08700
H1286       H  0.47337234  0.52201247  0.47839475     0.06200
H1287       H  0.50348194  0.49221725  0.47490980     0.06100
C1288       C  0.27910656  0.30226642  0.30020566     0.03100
C1289       C  0.29029476  0.29640249  0.29443955    -0.13000
C1290       C  0.29624819  0.30189848  0.28310234     0.00600
C1291       C  0.29091427  0.31356062  0.27770209    -0.11500
C1292       C  0.27982487  0.31967771  0.28347488     0.03100
C1293       C  0.27396742  0.31387275  0.29465932    -0.11000
H1294       H  0.29433303  0.28751138  0.29878482     0.08700
H1295       H  0.29540508  0.31790211  0.26900053     0.06200
H1296       H  0.26534596  0.31841307  0.29909941     0.06100
C1297       C  0.81245563  0.25608024  0.74417309    -0.01300
C1298       C  0.81336499  0.26984117  0.74519171    -0.09300
C1299       C  0.82448147  0.27583791  0.75068894    -0.18100
C1300       C  0.83521365  0.26824019  0.75536420     0.04200
C1301       C  0.83434019  0.25428423  0.75418461     0.18400
C1302       C  0.82304526  0.24837625  0.74870387    -0.19600
C1303       C  0.84476852  0.24629637  0.75844489    -0.20800
C1304       C  0.85612212  0.25185931  0.76373652    -0.19400
C1305       C  0.85730710  0.26556030  0.76505611     0.19800
C1306       C  0.84680324  0.27395692  0.76106074     0.01900
C1307       C  0.84838013  0.28769623  0.76297642    -0.14100
C1308       C  0.85993436  0.29285733  0.76841479    -0.11800
C1309       C  0.87039737  0.28458962  0.77203326     0.01500
C1310       C  0.86896416  0.27091390  0.77034953    -0.24000
H1311       H  0.80530390  0.27604042  0.74193216     0.09500
H1312       H  0.82437419  0.28645807  0.75110469     0.13000
H1313       H  0.82256584  0.23772654  0.74782123     0.11800
H1314       H  0.84418079  0.23565295  0.75759347     0.13000
H1315       H  0.86404171  0.24538278  0.76683181     0.12000
H1316       H  0.84085069  0.29473694  0.76040171     0.09100
H1317       H  0.86074597  0.30344442  0.76955852     0.12300
H1318       H  0.87688782  0.26437400  0.77329559     0.14200
C1319       C  0.15146883  0.25415976  0.77765111    -0.01300
C1320       C  0.15115669  0.26792913  0.77641258    -0.09300
C1321       C  0.16219775  0.27492047  0.77206346    -0.18100
C1322       C  0.17402051  0.26833850  0.76862649     0.04200
C1323       C  0.17432783  0.25435896  0.76988830     0.18400
C1324       C  0.16317491  0.24745192  0.77448951    -0.19600
C1325       C  0.18569983  0.24733424  0.76634862    -0.20800
C1326       C  0.19668015  0.25385054  0.76129339    -0.19400
C1327       C  0.19664799  0.26758502  0.75979944     0.19800
C1328       C  0.18542940  0.27507489  0.76371082     0.01900
C1329       C  0.18609071  0.28896187  0.76237254    -0.14100
C1330       C  0.19718188  0.29506482  0.75689123    -0.11800
C1331       C  0.20799307  0.28760504  0.75253485     0.01500
C1332       C  0.20772012  0.27386125  0.75422887    -0.24000
H1333       H  0.14234062  0.27342309  0.77892429     0.09500
H1334       H  0.16108216  0.28546241  0.77133719     0.13000
H1335       H  0.16353165  0.23679579  0.77529743     0.11800
H1336       H  0.18603427  0.23668788  0.76729744     0.13000
H1337       H  0.20523500  0.24808448  0.75843644     0.12000
H1338       H  0.17816637  0.29539597  0.76536749     0.09100
H1339       H  0.19713153  0.30568577  0.75570608     0.12300
H1340       H  0.21614825  0.26802069  0.75113443     0.14200
C1341       C  0.97885306  0.27941813  0.78843077    -0.01300
C1342       C  0.98007653  0.26567530  0.78794655    -0.09300
C1343       C  0.99251234  0.25969150  0.78807854    -0.18100
C1344       C  0.00416806  0.26735145  0.78854364     0.04200
C1345       C  0.00283182  0.28130761  0.78823469     0.18400
C1346       C  0.99028605  0.28716424  0.78835865    -0.19600
C1347       C  0.01402010  0.28936259  0.78795325    -0.20800
C1348       C  0.02657172  0.28386448  0.78819221    -0.19400
C1349       C  0.02824987  0.27019166  0.78909035     0.19800
C1350       C  0.01707711  0.26172208  0.78938742     0.01900
C1351       C  0.01932278  0.24803945  0.79091728    -0.14100
C1352       C  0.03208784  0.24303357  0.79218670    -0.11800
C1353       C  0.04306013  0.25140808  0.79176181     0.01500
C1354       C  0.04105953  0.26497003  0.79002572    -0.24000
H1355       H  0.97137737  0.25949885  0.78789401     0.09500
H1356       H  0.99267913  0.24906639  0.78780991     0.13000
H1357       H  0.98942267  0.29782775  0.78841449     0.11800
H1358       H  0.01305750  0.30000774  0.78757567     0.13000
H1359       H  0.03502976  0.29037956  0.78797708     0.12000
H1360       H  0.01141297  0.24098279  0.79148753     0.09100
H1361       H  0.03335242  0.23250177  0.79346023     0.12300
H1362       H  0.04946877  0.27155110  0.78988076     0.14200
C1363       C  0.02328889  0.03176427  0.90360346    -0.01300
C1364       C  0.01996048  0.01836755  0.90400267    -0.09300
C1365       C  0.01502642  0.01263828  0.91553444    -0.18100
C1366       C  0.01313870  0.02016895  0.92716859     0.04200
C1367       C  0.01651341  0.03377226  0.92676312     0.18400
C1368       C  0.02162799  0.03939018  0.91509648    -0.19600
C1369       C  0.01459493  0.04172068  0.93794905    -0.20800
C1370       C  0.00913541  0.03650965  0.94946550    -0.19400
C1371       C  0.00563311  0.02317311  0.95015579     0.19800
C1372       C  0.00782524  0.01474496  0.93909611     0.01900
C1373       C  0.00453574  0.00125870  0.94044637    -0.14100
C1374       C  0.99903715  0.99643548  0.95213155    -0.11800
C1375       C  0.99655111  0.00482741  0.96285193     0.01500
C1376       C  0.99990581  0.01819604  0.96183213    -0.24000
H1377       H  0.02125815  0.01216639  0.89537817     0.09500
H1378       H  0.01265139  0.00230113  0.91493418     0.13000
H1379       H  0.02405411  0.04979519  0.91492533     0.11800
H1380       H  0.01716921  0.05209315  0.93773264     0.13000
H1381       H  0.00760998  0.04296943  0.95788522     0.12000
H1382       H  0.00609661  0.99414017  0.93267690     0.09100
H1383       H  0.99650093  0.98607180  0.95272250     0.12300
H1384       H  0.99816140  0.02468833  0.97019336     0.14200
C1385       C  0.08306068  0.10699917  0.85128542    -0.01300
C1386       C  0.09451152  0.10863083  0.84369610    -0.09300
C1387       C  0.09916764  0.12122471  0.84060129    -0.18100
C1388       C  0.09223635  0.13263205  0.84473647     0.04200
C1389       C  0.08079104  0.13085235  0.85273439     0.18400
C1390       C  0.07649883  0.11814324  0.85613674    -0.19600
C1391       C  0.07332260  0.14173303  0.85680226    -0.20800
C1392       C  0.07666105  0.15435125  0.85268714    -0.19400
C1393       C  0.08764193  0.15641051  0.84453723     0.19800
C1394       C  0.09583552  0.14567389  0.84072765     0.01900
C1395       C  0.10698782  0.14847069  0.83272880    -0.14100
C1396       C  0.10931489  0.16123342  0.82796451    -0.11800
C1397       C  0.10067120  0.17156928  0.83107575     0.01500
C1398       C  0.09017361  0.16913951  0.83979657    -0.24000
H1399       H  0.09975423  0.10009919  0.83991189     0.09500
H1400       H  0.10792542  0.12169075  0.83455732     0.13000
H1401       H  0.06752940  0.11693109  0.86187359     0.11800
H1402       H  0.06460342  0.14043862  0.86289245     0.13000
H1403       H  0.07044088  0.16253772  0.85568328     0.12000
H1404       H  0.11391944  0.14096258  0.82974242     0.09100
H1405       H  0.11759851  0.16287082  0.82138917     0.12300
H1406       H  0.08365422  0.17713488  0.84265069     0.14200
C1407       C  0.02659002  0.01060014  0.61813811    -0.01300
C1408       C  0.02423183  0.02421854  0.61792728    -0.09300
C1409       C  0.01849525  0.03030455  0.60696555    -0.18100
C1410       C  0.01479551  0.02291561  0.59570057     0.04200
C1411       C  0.01707435  0.00907151  0.59593446     0.18400
C1412       C  0.02300976  0.00307534  0.60703272    -0.19600
C1413       C  0.01337478  0.00129171  0.58510669    -0.20800
C1414       C  0.00751349  0.00696930  0.57402461    -0.19400
C1415       C  0.00528755  0.02060248  0.57341137     0.19800
C1416       C  0.00893070  0.02878207  0.58422944     0.01900
C1417       C  0.00663073  0.04250824  0.58306497    -0.14100
C1418       C  0.00106369  0.04785243  0.57163557    -0.11800
C1419       C  0.99748783  0.03981414  0.56096950     0.01500
C1420       C  0.99953303  0.02613253  0.56198065    -0.24000
H1421       H  0.02696405  0.03034743  0.62624787     0.09500
H1422       H  0.01707636  0.04076772  0.60767605     0.13000
H1423       H  0.02463838  0.99251573  0.60708163     0.11800
H1424       H  0.01501518  0.99072542  0.58520586     0.13000
H1425       H  0.00477820  0.00065086  0.56583586     0.12000
H1426       H  0.00907186  0.04940129  0.59072113     0.09100
H1427       H  0.99942966  0.05841180  0.57121324     0.12300
H1428       H  0.99689431  0.01982016  0.55375750     0.14200
C1429       C  0.04184923  0.00904757  0.72720396    -0.01300
C1430       C  0.03875646  0.99991057  0.73713088    -0.09300
C1431       C  0.03764310  0.00383060  0.75033849    -0.18100
C1432       C  0.03995670  0.01705758  0.75409651     0.04200
C1433       C  0.04325127  0.02624905  0.74394786     0.18400
C1434       C  0.04385893  0.02224619  0.73063434    -0.19600
C1435       C  0.04630577  0.03930216  0.74717534    -0.20800
C1436       C  0.04639377  0.04340666  0.76028428    -0.19400
C1437       C  0.04314056  0.03464046  0.77047663     0.19800
C1438       C  0.03955518  0.02141976  0.76756241     0.01900
C1439       C  0.03585416  0.01317886  0.77828107    -0.14100
C1440       C  0.03635361  0.01773366  0.79136292    -0.11800
C1441       C  0.04060923  0.03056207  0.79415801     0.01500
C1442       C  0.04366954  0.03902323  0.78361607    -0.24000
H1443       H  0.03724223  0.98962355  0.73465582     0.09500
H1444       H  0.03534709  0.99621381  0.75741049     0.13000
H1445       H  0.04652541  0.02927664  0.72299649     0.11800
H1446       H  0.04890880  0.04632979  0.73952239     0.13000
H1447       H  0.04907568  0.05352044  0.76247184     0.12000
H1448       H  0.03259692  0.00316419  0.77687751     0.09100
H1449       H  0.03380357  0.01105148  0.79932584     0.12300
H1450       H  0.04659185  0.04910383  0.78562183     0.14200
C1451       C  0.95123512  0.42685305  0.84202208    -0.01300
C1452       C  0.94185332  0.42588009  0.83194058    -0.09300
C1453       C  0.93569400  0.41393098  0.82914255    -0.18100
C1454       C  0.93894653  0.40236165  0.83619669     0.04200
C1455       C  0.94827931  0.40343548  0.84664413     0.18400
C1456       C  0.95410182  0.41569153  0.84965256    -0.19600
C1457       C  0.95218935  0.39215913  0.85359746    -0.20800
C1458       C  0.94758096  0.37976119  0.84994964    -0.19400
C1459       C  0.93869485  0.37836521  0.83947194     0.19800
C1460       C  0.93380444  0.38967914  0.83280191     0.01900
C1461       C  0.92430090  0.38772401  0.82274627    -0.14100
C1462       C  0.92062889  0.37502561  0.81880149    -0.11800
C1463       C  0.92633301  0.36392973  0.82468604     0.01500
C1464       C  0.93502520  0.36567517  0.83530285    -0.24000
H1465       H  0.93938409  0.43442214  0.82600169     0.09500
H1466       H  0.92881314  0.41398818  0.82104932     0.13000
H1467       H  0.96144628  0.41637002  0.85739019     0.11800
H1468       H  0.95923781  0.39287186  0.86159709     0.13000
H1469       H  0.95118739  0.37117151  0.85520576     0.12000
H1470       H  0.91968956  0.39579369  0.81758306     0.09100
H1471       H  0.91380166  0.37390001  0.81066707     0.12300
H1472       H  0.93925236  0.35709177  0.84009655     0.14200
C1473       C  0.02487913  0.51358643  0.55956290    -0.01300
C1474       C  0.02380896  0.52737739  0.56020733    -0.09300
C1475       C  0.01766687  0.53357293  0.57101048    -0.18100
C1476       C  0.01239060  0.52613616  0.58164057     0.04200
C1477       C  0.01382345  0.51218236  0.58108765     0.18400
C1478       C  0.01995102  0.50610670  0.57016170    -0.19600
C1479       C  0.00909732  0.50431198  0.59143352    -0.20800
C1480       C  0.00290943  0.50996373  0.60233788    -0.19400
C1481       C  0.00114225  0.52363536  0.60313803     0.19800
C1482       C  0.00576198  0.53195729  0.59278830     0.01900
C1483       C  0.00339306  0.54567958  0.59404039    -0.14100
C1484       C  0.99681752  0.55086158  0.60511971    -0.11800
C1485       C  0.99250592  0.54261468  0.61539443     0.01500
C1486       C  0.99470966  0.52899300  0.61426240    -0.24000
H1487       H  0.02750644  0.53341834  0.55217906     0.09500
H1488       H  0.01717905  0.54419175  0.57075291     0.13000
H1489       H  0.02097904  0.49545862  0.56996293     0.11800
H1490       H  0.01019797  0.49367764  0.59109559     0.13000
H1491       H  0.99939470  0.50356521  0.61017959     0.12000
H1492       H  0.00644726  0.55264914  0.58659096     0.09100
H1493       H  0.99531061  0.56142122  0.60572434     0.12300
H1494       H  0.99126255  0.52245157  0.62200984     0.14200
C1495       C  0.97810776  0.53896459  0.72374045    -0.01300
C1496       C  0.98176105  0.52570178  0.72498508    -0.09300
C1497       C  0.98350709  0.52001019  0.73744813    -0.18100
C1498       C  0.98164839  0.52745941  0.74916853     0.04200
C1499       C  0.97838238  0.54102782  0.74783555     0.18400
C1500       C  0.97668758  0.54661673  0.73524134    -0.19600
C1501       C  0.97658293  0.54890861  0.75908313    -0.20800
C1502       C  0.97764976  0.54353289  0.77168890    -0.19400
C1503       C  0.98051744  0.53013244  0.77337273     0.19800
C1504       C  0.98267293  0.52191541  0.76213835     0.01900
C1505       C  0.98548588  0.50844895  0.76438977    -0.14100
C1506       C  0.98572370  0.50330652  0.77718071    -0.11800
C1507       C  0.98330292  0.51135365  0.78821068     0.01500
C1508       C  0.98096372  0.52483613  0.78623971    -0.24000
H1509       H  0.98295082  0.51955017  0.71630337     0.09500
H1510       H  0.98614406  0.50971744  0.73754866     0.13000
H1511       H  0.97413881  0.55696677  0.73444825     0.11800
H1512       H  0.97416204  0.55928325  0.75812587     0.13000
H1513       H  0.97603253  0.54986997  0.78018468     0.12000
H1514       H  0.98736602  0.50156422  0.75648644     0.09100
H1515       H  0.98780257  0.49289971  0.77840151     0.12300
H1516       H  0.97903067  0.53114452  0.79469157     0.14200
C1517       C  0.20246127  0.75763870  0.78305214    -0.01300
C1518       C  0.20215541  0.77137880  0.78142933    -0.09300
C1519       C  0.19109593  0.77767156  0.77603867    -0.18100
C1520       C  0.17985241  0.77038320  0.77215810     0.04200
C1521       C  0.18018400  0.75646955  0.77400519     0.18400
C1522       C  0.19139336  0.75028701  0.77931627    -0.19600
C1523       C  0.16930970  0.74875165  0.77055552    -0.20800
C1524       C  0.15806831  0.75451272  0.76527211    -0.19400
C1525       C  0.15741841  0.76814551  0.76318889     0.19800
C1526       C  0.16829777  0.77631409  0.76653555     0.01900
C1527       C  0.16710958  0.79000256  0.76400070    -0.14100
C1528       C  0.15565723  0.79527947  0.75834327    -0.11800
C1529       C  0.14493228  0.78717715  0.75512348     0.01500
C1530       C  0.14592856  0.77360580  0.75766365    -0.24000
H1531       H  0.21061027  0.77728328  0.78415484     0.09500
H1532       H  0.19163405  0.78824265  0.77504626     0.13000
H1533       H  0.19144168  0.73967837  0.78070762     0.11800
H1534       H  0.16948927  0.73815221  0.77196790     0.13000
H1535       H  0.14982624  0.74822661  0.76272682     0.12000
H1536       H  0.17489411  0.79687355  0.76620013     0.09100
H1537       H  0.15518651  0.80580436  0.75659122     0.12300
H1538       H  0.13782522  0.76716009  0.75509663     0.14200
C1539       C  0.07753833  0.92816410  0.67250773    -0.01300
C1540       C  0.07251914  0.91753161  0.66528993    -0.09300
C1541       C  0.07580240  0.90454520  0.66870328    -0.18100
C1542       C  0.08428915  0.90182323  0.67948613     0.04200
C1543       C  0.08981311  0.91272138  0.68633509     0.18400
C1544       C  0.08643255  0.92565710  0.68279703    -0.19600
C1545       C  0.09846649  0.91068369  0.69689328    -0.20800
C1546       C  0.10159677  0.89799678  0.70101602    -0.19400
C1547       C  0.09605518  0.88702461  0.69476872     0.19800
C1548       C  0.08734845  0.88875163  0.68388176     0.01900
C1549       C  0.08185712  0.87732367  0.67811040    -0.14100
C1550       C  0.08463875  0.86479920  0.68313971    -0.11800
C1551       C  0.09306004  0.86316286  0.69399182     0.01500
C1552       C  0.09893220  0.87433206  0.69958910    -0.24000
H1553       H  0.06563544  0.91921875  0.65730233     0.09500
H1554       H  0.07139027  0.89686313  0.66284014     0.13000
H1555       H  0.09059088  0.93383767  0.68828227     0.11800
H1556       H  0.10274531  0.91897838  0.70210302     0.13000
H1557       H  0.10823375  0.89676646  0.70930562     0.12000
H1558       H  0.07518352  0.87773609  0.66985467     0.09100
H1559       H  0.08007080  0.85633704  0.67851018     0.12300
H1560       H  0.10535867  0.87321909  0.70805837     0.14200
C1561       C  0.86210540  0.75960885  0.74791908    -0.01300
C1562       C  0.86288634  0.76568106  0.76034523    -0.09300
C1563       C  0.85167106  0.77101491  0.76644026    -0.18100
C1564       C  0.83923710  0.77069889  0.76014105     0.04200
C1565       C  0.83849481  0.76450399  0.74752723     0.18400
C1566       C  0.84979831  0.75885229  0.74168385    -0.19600
C1567       C  0.82653646  0.76425175  0.74066390    -0.20800
C1568       C  0.81534410  0.77028225  0.74589550    -0.19400
C1569       C  0.81572668  0.77649563  0.75826006     0.19800
C1570       C  0.82759691  0.77655267  0.76572104     0.01900
C1571       C  0.82726979  0.78253579  0.77838944    -0.14100
C1572       C  0.81574549  0.78841834  0.78327463    -0.11800
C1573       C  0.80425468  0.78872724  0.77566957     0.01500
C1574       C  0.80429614  0.78271437  0.76318571    -0.24000
H1575       H  0.87224584  0.76629778  0.76542161     0.09500
H1576       H  0.85311779  0.77557455  0.77595655     0.13000
H1577       H  0.84909204  0.75428998  0.73200865     0.11800
H1578       H  0.82588859  0.75955826  0.73104982     0.13000
H1579       H  0.80631132  0.77009831  0.74020736     0.12000
H1580       H  0.83573853  0.78278451  0.78478459     0.09100
H1581       H  0.81586941  0.79299114  0.79296583     0.12300
H1582       H  0.79535381  0.78281887  0.75733935     0.14200
C1583       C  0.91633551  0.68721289  0.68486183    -0.01300
C1584       C  0.92529597  0.68525531  0.67446032    -0.09300
C1585       C  0.92934628  0.67258204  0.67085390    -0.18100
C1586       C  0.92469042  0.66135970  0.67772272     0.04200
C1587       C  0.91547730  0.66339688  0.68818574     0.18400
C1588       C  0.91121624  0.67620065  0.69147003    -0.19600
C1589       C  0.91091918  0.65268693  0.69562663    -0.20800
C1590       C  0.91556110  0.64001326  0.69313758    -0.19400
C1591       C  0.92466145  0.63768101  0.68295162     0.19800
C1592       C  0.92912983  0.64825387  0.67487493     0.01900
C1593       C  0.93793589  0.64522809  0.66439917    -0.14100
C1594       C  0.94246948  0.63234889  0.66236589    -0.11800
C1595       C  0.93847841  0.62207837  0.67071537     0.01500
C1596       C  0.92941830  0.62481792  0.68088323    -0.24000
H1597       H  0.92937218  0.69361164  0.66917975     0.09500
H1598       H  0.93643067  0.67194258  0.66290881     0.13000
H1599       H  0.90444001  0.67761651  0.69966802     0.11800
H1600       H  0.90392706  0.65416080  0.70362944     0.13000
H1601       H  0.91204162  0.63197552  0.69926867     0.12000
H1602       H  0.94152986  0.65259500  0.65760800     0.09100
H1603       H  0.94941786  0.63051725  0.65441853     0.12300
H1604       H  0.92602965  0.61690767  0.68724970     0.14200
C1605       C  0.97043262  0.76325583  0.72574322    -0.01300
C1606       C  0.98033980  0.75368560  0.72448423    -0.09300
C1607       C  0.99361541  0.75699495  0.72589271    -0.18100
C1608       C  0.99748585  0.77016706  0.72827549     0.04200
C1609       C  0.98739251  0.77990217  0.72932373     0.18400
C1610       C  0.97400599  0.77632044  0.72842020    -0.19600
C1611       C  0.99074372  0.79320738  0.73082014    -0.20800
C1612       C  0.00388583  0.79711042  0.73088979    -0.19400
C1613       C  0.01402785  0.78776218  0.72998090     0.19800
C1614       C  0.01100059  0.77410440  0.72915833     0.01900
C1615       C  0.02165060  0.76503168  0.72919920    -0.14100
C1616       C  0.03473609  0.76940431  0.72941040    -0.11800
C1617       C  0.03760436  0.78288863  0.72931567     0.01500
C1618       C  0.02720753  0.79200846  0.72975599    -0.24000
H1619       H  0.97779641  0.74352955  0.72235424     0.09500
H1620       H  0.00064032  0.74910624  0.72460865     0.13000
H1621       H  0.96638817  0.78380581  0.72914211     0.11800
H1622       H  0.98314047  0.80069658  0.73156784     0.13000
H1623       H  0.00613585  0.80753042  0.73168252     0.12000
H1624       H  0.02017346  0.75450350  0.72913903     0.09100
H1625       H  0.04265043  0.76222072  0.72916319     0.12300
H1626       H  0.02940919  0.80247576  0.72992582     0.14200
C1627       C  0.02354629  0.53879562  0.95662040    -0.01300
C1628       C  0.01907002  0.54725599  0.94659971    -0.09300
C1629       C  0.01376651  0.54227837  0.93486058    -0.18100
C1630       C  0.01270784  0.52853535  0.93267986     0.04200
C1631       C  0.01742036  0.51996832  0.94277373     0.18400
C1632       C  0.02277878  0.52512575  0.95453899    -0.19600
C1633       C  0.01668595  0.50627933  0.94111123    -0.20800
C1634       C  0.01133573  0.50087978  0.92967477    -0.19400
C1635       C  0.00654900  0.50901206  0.91957673     0.19800
C1636       C  0.00716621  0.52296740  0.92089210     0.01900
C1637       C  0.00219822  0.53068530  0.91034472    -0.14100
C1638       C  0.99701591  0.52478510  0.89896806    -0.11800
C1639       C  0.99646329  0.51102067  0.89770343     0.01500
C1640       C  0.00119486  0.50322013  0.90813197    -0.24000
H1641       H  0.01975322  0.55785217  0.94779776     0.09500
H1642       H  0.01057578  0.54945618  0.92769186     0.13000
H1643       H  0.02610565  0.51845952  0.96222373     0.11800
H1644       H  0.02026523  0.49967946  0.94873463     0.13000
H1645       H  0.01092644  0.49023596  0.92873046     0.12000
H1646       H  0.00219427  0.54131154  0.91056471     0.09100
H1647       H  0.99332038  0.53107878  0.89115970     0.12300
H1648       H  0.00095703  0.49256812  0.90727052     0.14200
C1649       C  0.27441892  0.76502470  0.21597006    -0.01300
C1650       C  0.28253695  0.76831120  0.20522448    -0.09300
C1651       C  0.27712600  0.77224614  0.19311600    -0.18100
C1652       C  0.26330407  0.77312820  0.19136168     0.04200
C1653       C  0.25512521  0.77000948  0.20237761     0.18400
C1654       C  0.26070340  0.76597743  0.21444883    -0.19600
C1655       C  0.24140084  0.77088833  0.20129124    -0.20800
C1656       C  0.23557550  0.77486124  0.18950783    -0.19400
C1657       C  0.24330632  0.77796753  0.17844465     0.19800
C1658       C  0.25728266  0.77703448  0.17914999     0.01900
C1659       C  0.26457660  0.78004135  0.16758848    -0.14100
C1660       C  0.25828217  0.78395383  0.15593658    -0.11800
C1661       C  0.24451610  0.78509592  0.15533683     0.01500
C1662       C  0.23710602  0.78202682  0.16667351    -0.24000
H1663       H  0.29314660  0.76752567  0.20608571     0.09500
H1664       H  0.28402661  0.77450765  0.18531731     0.13000
H1665       H  0.25432709  0.76358619  0.22273947     0.11800
H1666       H  0.23510864  0.76852583  0.20964777     0.13000
H1667       H  0.22492300  0.77549645  0.18904519     0.12000
H1668       H  0.27517416  0.77946924  0.16721971     0.09100
H1669       H  0.26431866  0.78630658  0.14741290     0.12300
H1670       H  0.22645244  0.78268522  0.16633780     0.14200
C1671       C  0.26977777  0.78482697  0.87261617    -0.01300
C1672       C  0.27735327  0.78201288  0.86133951    -0.09300
C1673       C  0.27173093  0.77600485  0.85024595    -0.18100
C1674       C  0.25817993  0.77272996  0.84995715     0.04200
C1675       C  0.25045355  0.77585802  0.86131075     0.18400
C1676       C  0.25630577  0.78167285  0.87251224    -0.19600
C1677       C  0.23690005  0.77326387  0.86138177    -0.20800
C1678       C  0.23080828  0.76773152  0.85038279    -0.19400
C1679       C  0.23813829  0.76440972  0.83909403     0.19800
C1680       C  0.25197706  0.76664251  0.83878497     0.01900
C1681       C  0.25897401  0.76263229  0.82731846    -0.14100
C1682       C  0.25246829  0.75694054  0.81655410    -0.11800
C1683       C  0.23878078  0.75515850  0.81673261     0.01500
C1684       C  0.23169088  0.75887039  0.82809141    -0.24000
H1685       H  0.28777039  0.78430052  0.86113070     0.09500
H1686       H  0.27823474  0.77418540  0.84199056     0.13000
H1687       H  0.25027259  0.78397926  0.88108137     0.11800
H1688       H  0.23092892  0.77565559  0.86997138     0.13000
H1689       H  0.22027542  0.76599337  0.85073048     0.12000
H1690       H  0.26949921  0.76370124  0.82638183     0.09100
H1691       H  0.25815936  0.75414583  0.80790317     0.12300
H1692       H  0.22112092  0.75732311  0.82840025     0.14200
C1693       C  0.27053981  0.80831939  0.98054140    -0.01300
C1694       C  0.26780611  0.79615440  0.98652981    -0.09300
C1695       C  0.26391506  0.79553573  0.99986710    -0.18100
C1696       C  0.26243168  0.80716652  0.00753667     0.04200
C1697       C  0.26476476  0.81945211  0.00116442     0.18400
C1698       C  0.26889816  0.81988463  0.98793856    -0.19600
C1699       C  0.26291055  0.83132333  0.00797453    -0.20800
C1700       C  0.25859930  0.83132804  0.02100239    -0.19400
C1701       C  0.25635533  0.81945469  0.02765803     0.19800
C1702       C  0.25852394  0.80716398  0.02118389     0.01900
C1703       C  0.25673007  0.79550854  0.02871311    -0.14100
C1704       C  0.25252794  0.79609937  0.04194559    -0.11800
C1705       C  0.24976166  0.80825740  0.04794347     0.01500
C1706       C  0.25184239  0.81986455  0.04077506    -0.24000
H1707       H  0.26895518  0.78708163  0.98097599     0.09500
H1708       H  0.26201818  0.78586572  0.00388025     0.13000
H1709       H  0.27067995  0.82936759  0.98331215     0.11800
H1710       H  0.26464828  0.84070370  0.00312857     0.13000
H1711       H  0.25705823  0.84070809  0.02593226     0.12000
H1712       H  0.25852699  0.78583432  0.02464262     0.09100
H1713       H  0.25101264  0.78700679  0.04736511     0.12300
H1714       H  0.24993253  0.82930847  0.04546663     0.14200
C1715       C  0.99465917  0.96970161  0.99746728    -0.01300
C1716       C  0.98618203  0.95957082  0.00153294    -0.09300
C1717       C  0.99116310  0.94778274  0.00664836    -0.18100
C1718       C  0.00489840  0.94569744  0.00785315     0.04200
C1719       C  0.01345707  0.95600601  0.00370651     0.18400
C1720       C  0.00830474  0.96781822  0.99862689    -0.19600
C1721       C  0.02712986  0.95449424  0.00465738    -0.20800
C1722       C  0.03253476  0.94298028  0.00975784    -0.19400
C1723       C  0.02440656  0.93266497  0.01398817     0.19800
C1724       C  0.01046575  0.93380282  0.01301721     0.01900
C1725       C  0.00275072  0.92296163  0.01722826    -0.14100
C1726       C  0.00864679  0.91150820  0.02211877    -0.11800
C1727       C  0.02237115  0.91050768  0.02313717     0.01500
C1728       C  0.03018040  0.92116355  0.01912188    -0.24000
H1729       H  0.97561205  0.96065493  0.00054775     0.09500
H1730       H  0.98399225  0.94049300  0.00952562     0.13000
H1731       H  0.01496905  0.97564490  0.99568066     0.11800
H1732       H  0.03370275  0.96229888  0.00146609     0.13000
H1733       H  0.04316415  0.94213829  0.01039679     0.12000
H1734       H  0.99214399  0.92297775  0.01681607     0.09100
H1735       H  0.00239556  0.90342988  0.02524056     0.12300
H1736       H  0.04082016  0.92040539  0.01971411     0.14200
C1737       C  0.16447638  0.83831618  0.10080210    -0.01300
C1738       C  0.16311863  0.84985308  0.09329647    -0.09300
C1739       C  0.15072539  0.85448983  0.08959758    -0.18100
C1740       C  0.13916525  0.84756444  0.09311441     0.04200
C1741       C  0.14053354  0.83620058  0.10128774     0.18400
C1742       C  0.15310630  0.83180202  0.10519852    -0.19600
C1743       C  0.12939117  0.82896487  0.10501923    -0.20800
C1744       C  0.11699801  0.83236482  0.10027593    -0.19400
C1745       C  0.11542653  0.84313116  0.09174735     0.19800
C1746       C  0.12639614  0.85114535  0.08834258     0.01900
C1747       C  0.12414716  0.86207804  0.07990399    -0.14100
C1748       C  0.11172258  0.86441084  0.07443002    -0.11800
C1749       C  0.10116024  0.85598407  0.07719916     0.01500
C1750       C  0.10300428  0.84563324  0.08622179    -0.24000
H1751       H  0.17174402  0.85523476  0.09001914     0.09500
H1752       H  0.15057895  0.86329816  0.08363933     0.13000
H1753       H  0.15405586  0.82286721  0.11101357     0.11800
H1754       H  0.13031817  0.82036887  0.11132535     0.13000
H1755       H  0.10862607  0.82631492  0.10302754     0.12000
H1756       H  0.13184341  0.86883389  0.07707869     0.09100
H1757       H  0.11054222  0.87253659  0.06758276     0.12300
H1758       H  0.09480608  0.83924918  0.08871911     0.14200
C1759       C  0.02044086  0.57239323  0.99301765    -0.01300
C1760       C  0.00662917  0.57294947  0.99351809    -0.09300
C1761       C  0.00009045  0.58393063  0.99878574    -0.18100
C1762       C  0.00717934  0.59485451  0.00376845     0.04200
C1763       C  0.02118391  0.59423161  0.00330570     0.18400
C1764       C  0.02762908  0.58309117  0.99803212    -0.19600
C1765       C  0.02870754  0.60480428  0.00797149    -0.20800
C1766       C  0.02264663  0.61608845  0.01293354    -0.19400
C1767       C  0.00889406  0.61706605  0.01347254     0.19800
C1768       C  0.00092759  0.60641185  0.00906719     0.01900
C1769       C  0.98707859  0.60784081  0.01016530    -0.14100
C1770       C  0.98143534  0.61938926  0.01527772    -0.11800
C1771       C  0.98933533  0.62996187  0.01930945     0.01500
C1772       C  0.00307420  0.62868684  0.01839566    -0.24000
H1773       H  0.00080224  0.56478318  0.98987773     0.09500
H1774       H  0.98948151  0.58359754  0.99873130     0.13000
H1775       H  0.03830144  0.58290750  0.99753109     0.11800
H1776       H  0.03937942  0.60439425  0.00767624     0.13000
H1777       H  0.02877737  0.62413450  0.01635706     0.12000
H1778       H  0.98033522  0.60021069  0.00718475     0.09100
H1779       H  0.97080021  0.62012365  0.01584952     0.12300
H1780       H  0.00930135  0.63671512  0.02168317     0.14200
C1781       C  0.99330915  0.73819015  0.03241431    -0.01300
C1782       C  0.00699054  0.73904439  0.03090413    -0.09300
C1783       C  0.01316280  0.75129192  0.02970278    -0.18100
C1784       C  0.00576128  0.76314102  0.02984327     0.04200
C1785       C  0.99180364  0.76214639  0.03058818     0.18400
C1786       C  0.98575321  0.74977065  0.03204112    -0.19600
C1787       C  0.98397642  0.77351996  0.03009851    -0.20800
C1788       C  0.98972706  0.78593775  0.02933293    -0.19400
C1789       C  0.00344718  0.78730253  0.02936760     0.19800
C1790       C  0.01168179  0.77592274  0.02955409     0.01900
C1791       C  0.02546774  0.77785818  0.03001712    -0.14100
C1792       C  0.03078275  0.79050863  0.03085428    -0.11800
C1793       C  0.02261599  0.80165370  0.03097639     0.01500
C1794       C  0.00897424  0.80000392  0.02979544    -0.24000
H1795       H  0.01301520  0.73021617  0.03106391     0.09500
H1796       H  0.02373825  0.75114217  0.02873110     0.13000
H1797       H  0.97511769  0.74915126  0.03290662     0.11800
H1798       H  0.97332388  0.77281607  0.03046642     0.13000
H1799       H  0.98339251  0.79455662  0.02914044     0.12000
H1800       H  0.03240272  0.76980357  0.03023142     0.09100
H1801       H  0.04137540  0.79155713  0.03159291     0.12300
H1802       H  0.00258642  0.80858773  0.02998404     0.14200
C1803       C  0.34485500  0.85021572  0.92090195    -0.01300
C1804       C  0.34609158  0.86145511  0.92890748    -0.09300
C1805       C  0.35849166  0.86636499  0.93237351    -0.18100
C1806       C  0.37017162  0.85998496  0.92813781     0.04200
C1807       C  0.36885720  0.84904389  0.91938788     0.18400
C1808       C  0.35630443  0.84441442  0.91571629    -0.19600
C1809       C  0.38006944  0.84235221  0.91486493    -0.20800
C1810       C  0.39251520  0.84579209  0.91939398    -0.19400
C1811       C  0.39409352  0.85605898  0.92851870     0.19800
C1812       C  0.38303524  0.86360904  0.93273421     0.01900
C1813       C  0.38533937  0.87405651  0.94177749    -0.14100
C1814       C  0.39793538  0.87631916  0.94700434    -0.11800
C1815       C  0.40859909  0.86826346  0.94342451     0.01500
C1816       C  0.40664025  0.85844969  0.93383602    -0.24000
H1817       H  0.33739100  0.86629827  0.93282658     0.09500
H1818       H  0.35860578  0.87487757  0.93876505     0.13000
H1819       H  0.35548904  0.83572824  0.90951318     0.11800
H1820       H  0.37917336  0.83409664  0.90810829     0.13000
H1821       H  0.40094335  0.84011517  0.91601795     0.12000
H1822       H  0.37754768  0.88042502  0.94525695     0.09100
H1823       H  0.39919626  0.88402962  0.95431004     0.12300
H1824       H  0.41488362  0.85235661  0.93073784     0.14200
C1825       C  0.51611036  0.63665186  0.00048912    -0.01300
C1826       C  0.52420600  0.62616924  0.00448467    -0.09300
C1827       C  0.51892112  0.61510149  0.01086320    -0.18100
C1828       C  0.50522764  0.61404936  0.01337769     0.04200
C1829       C  0.49704634  0.62467839  0.00926086     0.18400
C1830       C  0.50252071  0.63581930  0.00301527    -0.19600
C1831       C  0.48340003  0.62408186  0.01125906    -0.20800
C1832       C  0.47764334  0.61307892  0.01710542    -0.19400
C1833       C  0.48538461  0.60242357  0.02125550     0.19800
C1834       C  0.49931329  0.60280414  0.01963389     0.01900
C1835       C  0.50665528  0.59187845  0.02429784    -0.14100
C1836       C  0.50041061  0.58097021  0.03003637    -0.11800
C1837       C  0.48665132  0.58049308  0.03132586     0.01500
C1838       C  0.47923308  0.59135173  0.02697438    -0.24000
H1839       H  0.53473729  0.62653468  0.00279048     0.09500
H1840       H  0.52580579  0.60747712  0.01359317     0.13000
H1841       H  0.49608286  0.64375061  0.99987588     0.11800
H1842       H  0.47709927  0.63214170  0.00814866     0.13000
H1843       H  0.46703217  0.61289388  0.01836441     0.12000
H1844       H  0.51724765  0.59144047  0.02362120     0.09100
H1845       H  0.50639819  0.57272092  0.03323613     0.12300
H1846       H  0.46860526  0.59122665  0.02812782     0.14200
C1847       C  0.51360873  0.74443572  0.98096818    -0.01300
C1848       C  0.49995869  0.74637120  0.98160183    -0.09300
C1849       C  0.49461957  0.75910167  0.98227808    -0.18100
C1850       C  0.50282451  0.77040582  0.98244443     0.04200
C1851       C  0.51667932  0.76835486  0.98232814     0.18400
C1852       C  0.52189909  0.75550762  0.98151612    -0.19600
C1853       C  0.52526504  0.77914861  0.98287269    -0.20800
C1854       C  0.52040167  0.79199491  0.98327699    -0.19400
C1855       C  0.50681842  0.79441641  0.98297316     0.19800
C1856       C  0.49782629  0.78364669  0.98257622     0.01900
C1857       C  0.48423505  0.78662533  0.98202704    -0.14100
C1858       C  0.47980006  0.79966555  0.98156577    -0.11800
C1859       C  0.48865432  0.81027980  0.98177625     0.01500
C1860       C  0.50217934  0.80755932  0.98275094    -0.24000
H1861       H  0.49332828  0.73802043  0.98122975     0.09500
H1862       H  0.48402744  0.75975384  0.98259706     0.13000
H1863       H  0.53249373  0.75415187  0.98131099     0.11800
H1864       H  0.53584398  0.77764939  0.98289301     0.13000
H1865       H  0.52733511  0.80011007  0.98359933     0.12000
H1866       H  0.47676191  0.77909962  0.98169136     0.09100
H1867       H  0.46928961  0.80141448  0.98101941     0.12300
H1868       H  0.50914043  0.81565906  0.98284544     0.14200
C1869       C  0.77164028  0.76780931  0.14894029    -0.01300
C1870       C  0.77990138  0.77091814  0.15958811    -0.09300
C1871       C  0.77492701  0.77696850  0.17104330    -0.18100
C1872       C  0.76136757  0.78004760  0.17236269     0.04200
C1873       C  0.75299348  0.77684462  0.16157226     0.18400
C1874       C  0.75816613  0.77089440  0.15003346    -0.19600
C1875       C  0.73946803  0.77953110  0.16238295    -0.20800
C1876       C  0.73403417  0.78523066  0.17370331    -0.19400
C1877       C  0.74197145  0.78850099  0.18452623     0.19800
C1878       C  0.75578264  0.78607707  0.18398724     0.01900
C1879       C  0.76334791  0.78978442  0.19512911    -0.14100
C1880       C  0.75745216  0.79553485  0.20629931    -0.11800
C1881       C  0.74380900  0.79772955  0.20689702     0.01500
C1882       C  0.73614731  0.79416963  0.19590353    -0.24000
H1883       H  0.79035061  0.76881631  0.15903765     0.09500
H1884       H  0.78195257  0.77905334  0.17873100     0.13000
H1885       H  0.75159818  0.76847797  0.14196074     0.11800
H1886       H  0.73300840  0.77712988  0.15421402     0.13000
H1887       H  0.72351427  0.78708577  0.17399530     0.12000
H1888       H  0.77386557  0.78836688  0.19552406     0.09100
H1889       H  0.76360855  0.79808033  0.21464901     0.12300
H1890       H  0.72561012  0.79595391  0.19614864     0.14200
C1891       C  0.84833191  0.70957344  0.09281130    -0.01300
C1892       C  0.84926194  0.70070953  0.08220275    -0.09300
C1893       C  0.86110382  0.69430161  0.07926306    -0.18100
C1894       C  0.87260379  0.69684450  0.08668142     0.04200
C1895       C  0.87149650  0.70550984  0.09773231     0.18400
C1896       C  0.85935022  0.71152148  0.10087322    -0.19600
C1897       C  0.88267697  0.70870159  0.10513415    -0.20800
C1898       C  0.89506611  0.70416494  0.10131384    -0.19400
C1899       C  0.89654260  0.69605209  0.09018974     0.19800
C1900       C  0.88528378  0.69175538  0.08307042     0.01900
C1901       C  0.88731127  0.68297294  0.07233990    -0.14100
C1902       C  0.90003021  0.67950701  0.06821867    -0.11800
C1903       C  0.91107760  0.68472911  0.07457435     0.01500
C1904       C  0.90926378  0.69263910  0.08581658    -0.24000
H1905       H  0.84082124  0.69894772  0.07591538     0.09500
H1906       H  0.86107065  0.68789077  0.07075671     0.13000
H1907       H  0.85872089  0.71845083  0.10902962     0.11800
H1908       H  0.88191679  0.71521453  0.11361265     0.13000
H1909       H  0.90359571  0.70728034  0.10692475     0.12000
H1910       H  0.87928559  0.67882466  0.06677226     0.09100
H1911       H  0.90121585  0.67327548  0.05958424     0.12300
H1912       H  0.91781230  0.69648834  0.09093398     0.14200
C1913       C  0.73693289  0.76680515  0.86728525    -0.01300
C1914       C  0.72930478  0.76892528  0.85593319    -0.09300
C1915       C  0.73492085  0.77410105  0.84436063    -0.18100
C1916       C  0.74849162  0.77727599  0.84368502     0.04200
C1917       C  0.75624352  0.77485823  0.85512481     0.18400
C1918       C  0.75043690  0.76979721  0.86672986    -0.19600
C1919       C  0.76979476  0.77743683  0.85492173    -0.20800
C1920       C  0.77587346  0.78228087  0.84356872    -0.19400
C1921       C  0.76853757  0.78490155  0.83216698     0.19800
C1922       C  0.75469807  0.78263317  0.83209079     0.01900
C1923       C  0.74771939  0.78591418  0.82043847    -0.14100
C1924       C  0.75424136  0.79101566  0.80932888    -0.11800
C1925       C  0.76792791  0.79289097  0.80934211     0.01500
C1926       C  0.77499420  0.78981493  0.82083762    -0.24000
H1927       H  0.71887073  0.76673088  0.85599684     0.09500
H1928       H  0.72839801  0.77541755  0.83607411     0.13000
H1929       H  0.75656436  0.76802239  0.87529975     0.11800
H1930       H  0.77577444  0.77559426  0.86359353     0.13000
H1931       H  0.78640341  0.78405161  0.84373294     0.12000
H1932       H  0.73720264  0.78472185  0.81962770     0.09100
H1933       H  0.74856478  0.79328581  0.80056060     0.12300
H1934       H  0.78555830  0.79140869  0.82100837     0.14200
C1935       C  0.65854588  0.71096988  0.92257387    -0.01300
C1936       C  0.64760554  0.71538828  0.91542286    -0.09300
C1937       C  0.63498961  0.71049509  0.91814305    -0.18100
C1938       C  0.63289903  0.70094969  0.92817596     0.04200
C1939       C  0.64412825  0.69604188  0.93494426     0.18400
C1940       C  0.65673183  0.70104437  0.93209866    -0.19600
C1941       C  0.64269601  0.68641544  0.94478101    -0.20800
C1942       C  0.63027234  0.68188674  0.94842762    -0.19400
C1943       C  0.61894430  0.68694652  0.94241305     0.19800
C1944       C  0.62009413  0.69640465  0.93204394     0.01900
C1945       C  0.60834046  0.70131137  0.92641451    -0.14100
C1946       C  0.59605555  0.69769421  0.93147632    -0.11800
C1947       C  0.59499304  0.68885781  0.94207899     0.01500
C1948       C  0.60645124  0.68308928  0.94715494    -0.24000
H1949       H  0.64870370  0.72299231  0.90798229     0.09500
H1950       H  0.62705715  0.71455435  0.91236778     0.13000
H1951       H  0.66514550  0.69730493  0.93751010     0.11800
H1952       H  0.65124167  0.68254722  0.94989234     0.13000
H1953       H  0.62950239  0.67464812  0.95628290     0.12000
H1954       H  0.60829570  0.70834438  0.91842654     0.09100
H1955       H  0.58729570  0.70215699  0.92730616     0.12300
H1956       H  0.60569178  0.67630935  0.95541958     0.14200
C1957       C  0.74073920  0.74901600  0.97589808    -0.01300
C1958       C  0.73272509  0.74711862  0.98705169    -0.09300
C1959       C  0.73774408  0.74861264  0.99978892    -0.18100
C1960       C  0.75110371  0.75193181  0.00183675     0.04200
C1961       C  0.75923741  0.75377323  0.99048432     0.18400
C1962       C  0.75396578  0.75250571  0.97768879    -0.19600
C1963       C  0.77264116  0.75662031  0.99197129    -0.20800
C1964       C  0.77821782  0.75743038  0.00449491    -0.19400
C1965       C  0.77047948  0.75566507  0.01585560     0.19800
C1966       C  0.75674768  0.75319076  0.01471613     0.01900
C1967       C  0.74930348  0.75200194  0.02653075    -0.14100
C1968       C  0.75534063  0.75269625  0.03890748    -0.11800
C1969       C  0.76896257  0.75449823  0.03995305     0.01500
C1970       C  0.77643926  0.75618975  0.02837312    -0.24000
H1971       H  0.72244123  0.74451979  0.98596225     0.09500
H1972       H  0.73095281  0.74686680  0.00781111     0.13000
H1973       H  0.76027985  0.75383617  0.96911779     0.11800
H1974       H  0.77890950  0.75801263  0.98337852     0.13000
H1975       H  0.78867765  0.75941316  0.00529841     0.12000
H1976       H  0.73880233  0.75047891  0.02656433     0.09100
H1977       H  0.74934003  0.75138508  0.04768867     0.12300
H1978       H  0.78696483  0.75784474  0.02909012     0.14200
C1979       C  0.52063720  0.97544946  0.02907990    -0.01300
C1980       C  0.50689236  0.97548242  0.02760763    -0.09300
C1981       C  0.50036266  0.96481139  0.02169238    -0.18100
C1982       C  0.50739185  0.95360835  0.01709422     0.04200
C1983       C  0.52127677  0.95346187  0.01898517     0.18400
C1984       C  0.52770556  0.96428821  0.02483591    -0.19600
C1985       C  0.52871810  0.94251254  0.01498942    -0.20800
C1986       C  0.52269759  0.93165278  0.00917591    -0.19400
C1987       C  0.50907918  0.93149059  0.00702044     0.19800
C1988       C  0.50121701  0.94252017  0.01077743     0.01900
C1989       C  0.48757379  0.94194708  0.00794113    -0.14100
C1990       C  0.48198942  0.93081700  0.00190618    -0.11800
C1991       C  0.48971959  0.91979470  0.99857819     0.01500
C1992       C  0.50330632  0.92030967  0.00111851    -0.24000
H1993       H  0.50117068  0.98395569  0.03076116     0.09500
H1994       H  0.48980510  0.96560975  0.02085388     0.13000
H1995       H  0.53830397  0.96400023  0.02614672     0.11800
H1996       H  0.53929760  0.94231636  0.01642297     0.13000
H1997       H  0.52876927  0.92331922  0.00628926     0.12000
H1998       H  0.48096749  0.94997338  0.01023686     0.09100
H1999       H  0.47148733  0.93078061  0.00007321     0.12300
H2000       H  0.50948989  0.91200925  0.99839519     0.14200
C2001       C  0.90021615  0.03132689  0.02303426    -0.01300
C2002       C  0.90165064  0.03046531  0.00926804    -0.09300
C2003       C  0.91313878  0.02526016  0.00360347    -0.18100
C2004       C  0.92358833  0.02058850  0.01158836     0.04200
C2005       C  0.92185842  0.02105183  0.02555180     0.18400
C2006       C  0.91034727  0.02649514  0.03109775    -0.19600
C2007       C  0.93164486  0.01611578  0.03393138    -0.20800
C2008       C  0.94324098  0.01088529  0.02876556    -0.19400
C2009       C  0.94543699  0.01062118  0.01509027     0.19800
C2010       C  0.93567238  0.01549060  0.00627802     0.01900
C2011       C  0.93852926  0.01518396  0.99257007    -0.14100
C2012       C  0.95049651  0.01017223  0.98784823    -0.11800
C2013       C  0.96005959  0.00528937  0.99656092     0.01500
C2014       C  0.95741687  0.00558081  0.01019684    -0.24000
H2015       H  0.89396035  0.03407844  0.00280756     0.09500
H2016       H  0.91352483  0.02501204  0.99294966     0.13000
H2017       H  0.90923443  0.02684442  0.04176334     0.11800
H2018       H  0.93033280  0.01632403  0.04457877     0.13000
H2019       H  0.95061744  0.00714999  0.03553670     0.12000
H2020       H  0.93174169  0.01878643  0.98523183     0.09100
H2021       H  0.95216044  0.00991170  0.97726075     0.12300
H2022       H  0.96479429  0.00203200  0.01707006     0.14200
C2023       C  0.61794204  0.02721251  0.99405613    -0.01300
C2024       C  0.60677983  0.02452619  0.98637662    -0.09300
C2025       C  0.59491993  0.02050389  0.99226069    -0.18100
C2026       C  0.59373003  0.01917350  0.00616675     0.04200
C2027       C  0.60504491  0.02199674  0.01392696     0.18400
C2028       C  0.61697100  0.02582728  0.00785279    -0.19600
C2029       C  0.60437962  0.02108797  0.02774082    -0.20800
C2030       C  0.59272339  0.01745129  0.03405582    -0.19400
C2031       C  0.58141541  0.01449684  0.02674041     0.19800
C2032       C  0.58175718  0.01523356  0.01267482     0.01900
C2033       C  0.57010607  0.01194634  0.00577896    -0.14100
C2034       C  0.55869273  0.00805885  0.01253835    -0.11800
C2035       C  0.55836346  0.00734619  0.02640375     0.01500
C2036       C  0.56979178  0.01069545  0.03343191    -0.24000
H2037       H  0.60722107  0.02542336  0.97570877     0.09500
H2038       H  0.58683206  0.01861130  0.98565503     0.13000
H2039       H  0.62544710  0.02801923  0.01395582     0.11800
H2040       H  0.61294367  0.02326356  0.03373078     0.13000
H2041       H  0.59257386  0.01689297  0.04476501     0.12000
H2042       H  0.56951155  0.01219404  0.99514192     0.09100
H2043       H  0.54999880  0.00565825  0.00684144     0.12300
H2044       H  0.56974039  0.01003317  0.04413934     0.14200
C2045       C  0.72698244  0.04413689  0.99707206    -0.01300
C2046       C  0.72853863  0.04210138  0.01068000    -0.09300
C2047       C  0.74108571  0.04223678  0.01642618    -0.18100
C2048       C  0.75255980  0.04430332  0.00865951     0.04200
C2049       C  0.75092713  0.04581434  0.99478262     0.18400
C2050       C  0.73827194  0.04581074  0.98918848    -0.19600
C2051       C  0.76192553  0.04744848  0.98654270    -0.20800
C2052       C  0.77456477  0.04776707  0.99178781    -0.19400
C2053       C  0.77653326  0.04668530  0.00543813     0.19800
C2054       C  0.76556403  0.04500256  0.01410283     0.01900
C2055       C  0.76810082  0.04437652  0.02783534    -0.14100
C2056       C  0.78091803  0.04552914  0.03271975    -0.11800
C2057       C  0.79168964  0.04714284  0.02414377     0.01500
C2058       C  0.78941924  0.04753369  0.01048508    -0.24000
H2059       H  0.71999646  0.04075363  0.01698688     0.09500
H2060       H  0.74147544  0.04072427  0.02697050     0.13000
H2061       H  0.73723082  0.04711908  0.97859988     0.11800
H2062       H  0.76074262  0.04852548  0.97594270     0.13000
H2063       H  0.78285514  0.04907345  0.98512429     0.12000
H2064       H  0.76036840  0.04323569  0.03507939     0.09100
H2065       H  0.78238991  0.04509508  0.04331653     0.12300
H2066       H  0.79765597  0.04893491  0.00377113     0.14200
C2067       C  0.76991708  0.89087824  0.27229426    -0.01300
C2068       C  0.76639266  0.88035261  0.28060093    -0.09300
C2069       C  0.76117423  0.86862615  0.27542480    -0.18100
C2070       C  0.75939432  0.86692805  0.26163200     0.04200
C2071       C  0.76303742  0.87759895  0.25324944     0.18400
C2072       C  0.76812666  0.88937520  0.25860202    -0.19600
C2073       C  0.76165413  0.87645828  0.23951914    -0.20800
C2074       C  0.75675082  0.86495536  0.23388137    -0.19400
C2075       C  0.75299566  0.85427161  0.24180482     0.19800
C2076       C  0.75419303  0.85508399  0.25581103     0.01900
C2077       C  0.75007144  0.84402159  0.26330501    -0.14100
C2078       C  0.74490564  0.83275622  0.25715509    -0.11800
C2079       C  0.74374103  0.83199835  0.24333232     0.01500
C2080       C  0.74792928  0.84282041  0.23575132    -0.24000
H2081       H  0.76754884  0.88119791  0.29121091     0.09500
H2082       H  0.75868249  0.86103987  0.28246678     0.13000
H2083       H  0.77091737  0.89731563  0.25199562     0.11800
H2084       H  0.76442557  0.88453313  0.23306094     0.13000
H2085       H  0.75584390  0.86443471  0.22321128     0.12000
H2086       H  0.75063421  0.84381224  0.27394967     0.09100
H2087       H  0.74186853  0.82452747  0.26327611     0.12300
H2088       H  0.74693393  0.84246500  0.22507903     0.14200
C2089       C  0.77532423  0.17211707  0.24172713    -0.01300
C2090       C  0.77284937  0.18331205  0.23395963    -0.09300
C2091       C  0.76667615  0.19448418  0.23933252    -0.18100
C2092       C  0.76282353  0.19492025  0.25280298     0.04200
C2093       C  0.76566751  0.18369183  0.26073897     0.18400
C2094       C  0.77171370  0.17245586  0.25515830    -0.19600
C2095       C  0.76251104  0.18374345  0.27423955    -0.20800
C2096       C  0.75664533  0.19472531  0.28007539    -0.19400
C2097       C  0.75353316  0.20587312  0.27252744     0.19800
C2098       C  0.75637876  0.20608640  0.25873261     0.01900
C2099       C  0.75253838  0.21742499  0.25150936    -0.14100
C2100       C  0.74638886  0.22814184  0.25777350    -0.11800
C2101       C  0.74399740  0.22804120  0.27143779     0.01500
C2102       C  0.74756272  0.21681526  0.27872645    -0.24000
H2103       H  0.77551570  0.18341138  0.22358107     0.09500
H2104       H  0.76513799  0.20266549  0.23270879     0.13000
H2105       H  0.77375966  0.16401136  0.26139185     0.11800
H2106       H  0.76468747  0.17524871  0.28037003     0.13000
H2107       H  0.75445012  0.19446072  0.29057645     0.12000
H2108       H  0.75408231  0.21827452  0.24099078     0.09100
H2109       H  0.74372794  0.23669307  0.25193190     0.12300
H2110       H  0.74555951  0.21655765  0.28927158     0.14200
C2111       C  0.83590272  0.11660675  0.16615910    -0.01300
C2112       C  0.84723453  0.10876286  0.16478178    -0.09300
C2113       C  0.85107927  0.10381537  0.15243964    -0.18100
C2114       C  0.84356773  0.10642014  0.14098297     0.04200
C2115       C  0.83229836  0.11471065  0.14237127     0.18400
C2116       C  0.82868975  0.11981743  0.15481626    -0.19600
C2117       C  0.82439571  0.11749555  0.13141190    -0.20800
C2118       C  0.82710450  0.11181225  0.11919744    -0.19400
C2119       C  0.83784495  0.10327701  0.11760066     0.19800
C2120       C  0.84648669  0.10071882  0.12832880     0.01900
C2121       C  0.85739656  0.09226549  0.12595375    -0.14100
C2122       C  0.85909077  0.08597081  0.11370458    -0.11800
C2123       C  0.85000017  0.08790058  0.10349363     0.01500
C2124       C  0.83969443  0.09693757  0.10540214    -0.24000
H2125       H  0.85311394  0.10626631  0.17334377     0.09500
H2126       H  0.85977884  0.09770460  0.15225231     0.13000
H2127       H  0.81986384  0.12578738  0.15573552     0.11800
H2128       H  0.81584149  0.12384819  0.13236998     0.13000
H2129       H  0.82056915  0.11389103  0.11099523     0.12000
H2130       H  0.86461857  0.09010519  0.13344178     0.09100
H2131       H  0.86723085  0.07916074  0.11242128     0.12300
H2132       H  0.83283000  0.09883219  0.09743118     0.14200
C2133       C  0.80131262  0.06444751  0.24188752    -0.01300
C2134       C  0.78887878  0.05860597  0.24327383    -0.09300
C2135       C  0.78768817  0.04521284  0.24654719    -0.18100
C2136       C  0.79898054  0.03729524  0.24879716     0.04200
C2137       C  0.81154056  0.04337007  0.24742566     0.18400
C2138       C  0.81256971  0.05668903  0.24383824    -0.19600
C2139       C  0.82306312  0.03622032  0.24991833    -0.20800
C2140       C  0.82242066  0.02322986  0.25417005    -0.19400
C2141       C  0.81025036  0.01696300  0.25574834     0.19800
C2142       C  0.79833908  0.02372258  0.25273273     0.01900
C2143       C  0.78638421  0.01660009  0.25396233    -0.14100
C2144       C  0.78628872  0.00353095  0.25854709    -0.11800
C2145       C  0.79803561  0.99726863  0.26219999     0.01500
C2146       C  0.80996625  0.00399318  0.26055584    -0.24000
H2147       H  0.78003157  0.06437708  0.24170364     0.09500
H2148       H  0.77782233  0.04139381  0.24749574     0.13000
H2149       H  0.82224256  0.06113481  0.24295321     0.11800
H2150       H  0.83265429  0.04080400  0.24885866     0.13000
H2151       H  0.83152624  0.01806582  0.25632517     0.12000
H2152       H  0.77697515  0.02089277  0.25152596     0.09100
H2153       H  0.77695889  0.99847342  0.25968653     0.12300
H2154       H  0.81912242  0.99910330  0.26312226     0.14200
C2155       C  0.90356680  0.01701357  0.49536648    -0.01300
C2156       C  0.90440574  0.01712321  0.50921191    -0.09300
C2157       C  0.91583821  0.02141443  0.51560521    -0.18100
C2158       C  0.92686246  0.02599383  0.50833040     0.04200
C2159       C  0.92593165  0.02598035  0.49428222     0.18400
C2160       C  0.91445571  0.02136044  0.48797275    -0.19600
C2161       C  0.93640372  0.03073662  0.48659949    -0.20800
C2162       C  0.94774768  0.03562076  0.49253917    -0.19400
C2163       C  0.94902317  0.03572840  0.50632983     0.19800
C2164       C  0.93868010  0.03076149  0.51444530     0.01900
C2165       C  0.94063814  0.03083894  0.52830636    -0.14100
C2166       C  0.95222343  0.03585963  0.53383827    -0.11800
C2167       C  0.96230590  0.04099725  0.52582758     0.01500
C2168       C  0.96060667  0.04080972  0.51203838    -0.24000
H2169       H  0.89620493  0.01373476  0.51518687     0.09500
H2170       H  0.91567126  0.02117502  0.52626170     0.13000
H2171       H  0.91388839  0.02146303  0.47726454     0.11800
H2172       H  0.93576730  0.03080299  0.47589654     0.13000
H2173       H  0.95559893  0.03934566  0.48628014     0.12000
H2174       H  0.93339343  0.02709991  0.53515630     0.09100
H2175       H  0.95317063  0.03593823  0.54450774     0.12300
H2176       H  0.96840172  0.04450939  0.50568994     0.14200
C2177       C  0.84835402  0.96704955  0.41271952    -0.01300
C2178       C  0.85576106  0.97110279  0.40175626    -0.09300
C2179       C  0.85265586  0.96662091  0.38903018    -0.18100
C2180       C  0.84198163  0.95786839  0.38688490     0.04200
C2181       C  0.83499170  0.95323520  0.39815843     0.18400
C2182       C  0.83822824  0.95781167  0.41085206    -0.19600
C2183       C  0.82454945  0.94434224  0.39669079    -0.20800
C2184       C  0.82056660  0.94026506  0.38419230    -0.19400
C2185       C  0.82685682  0.94504878  0.37282673     0.19800
C2186       C  0.83776045  0.95380097  0.37400237     0.01900
C2187       C  0.84367534  0.95841543  0.36221085    -0.14100
C2188       C  0.83865947  0.95492916  0.34985036    -0.11800
C2189       C  0.82766683  0.94663489  0.34871534     0.01500
C2190       C  0.82203027  0.94144758  0.36027661    -0.24000
H2191       H  0.86365798  0.97817528  0.40293364     0.09500
H2192       H  0.85864035  0.97038327  0.38106259     0.13000
H2193       H  0.83261466  0.95434926  0.41930605     0.11800
H2194       H  0.81926007  0.94068766  0.40527289     0.13000
H2195       H  0.81230455  0.93354946  0.38340374     0.12000
H2196       H  0.85201835  0.96497056  0.36218984     0.09100
H2197       H  0.84339627  0.95890045  0.34110615     0.12300
H2198       H  0.81350942  0.93505817  0.35955578     0.14200
C2199       C  0.61839514  0.01902570  0.51868645    -0.01300
C2200       C  0.61714433  0.02082916  0.50498140    -0.09300
C2201       C  0.60544746  0.02573098  0.49950650    -0.18100
C2202       C  0.59453667  0.02911549  0.50761333     0.04200
C2203       C  0.59592922  0.02745026  0.52150699     0.18400
C2204       C  0.60769154  0.02240843  0.52685071    -0.19600
C2205       C  0.58557171  0.03084307  0.53004590    -0.20800
C2206       C  0.57379378  0.03580554  0.52511321    -0.19400
C2207       C  0.57200111  0.03743682  0.51149236     0.19800
C2208       C  0.58232053  0.03409427  0.50251074     0.01900
C2209       C  0.57989740  0.03583835  0.48884782    -0.14100
C2210       C  0.56779455  0.04068088  0.48434911    -0.11800
C2211       C  0.55764185  0.04398517  0.49323596     0.01500
C2212       C  0.55988617  0.04234797  0.50682438    -0.24000
H2213       H  0.62518677  0.01829096  0.49838570     0.09500
H2214       H  0.60526290  0.02677623  0.48889886     0.13000
H2215       H  0.60852666  0.02128642  0.53747217     0.11800
H2216       H  0.58658524  0.02965018  0.54065092     0.13000
H2217       H  0.56599209  0.03833344  0.53202136     0.12000
H2218       H  0.58715138  0.03353940  0.48137940     0.09100
H2219       H  0.56645446  0.04202286  0.47380806     0.12300
H2220       H  0.55209413  0.04470913  0.51380633     0.14200
C2221       C  0.72799787  0.00447208  0.51815460    -0.01300
C2222       C  0.73825436  0.00671802  0.52712280    -0.09300
C2223       C  0.75134439  0.00691715  0.52295203    -0.18100
C2224       C  0.75469310  0.00473512  0.50956231     0.04200
C2225       C  0.74423758  0.00263074  0.50042770     0.18400
C2226       C  0.73102776  0.00269735  0.50475118    -0.19600
C2227       C  0.74705008  0.00017778  0.48709284    -0.20800
C2228       C  0.76001755  0.99959299  0.48265080    -0.19400
C2229       C  0.77049747  0.00158260  0.49140378     0.19800
C2230       C  0.76802569  0.00434618  0.50495753     0.01900
C2231       C  0.77902434  0.00651296  0.51328745    -0.14100
C2232       C  0.79190568  0.00568818  0.50838587    -0.11800
C2233       C  0.79426762  0.00263913  0.49508753     0.01500
C2234       C  0.78346991  0.00074567  0.48664657    -0.24000
H2235       H  0.73617164  0.00829670  0.53752052     0.09500
H2236       H  0.75860132  0.00858559  0.53051382     0.13000
H2237       H  0.72315027  0.00084746  0.49777583     0.11800
H2238       H  0.73916926  0.99853773  0.48007414     0.13000
H2239       H  0.76186525  0.99752144  0.47228449     0.12000
H2240       H  0.77803387  0.00883011  0.52364297     0.09100
H2241       H  0.80004074  0.00720489  0.51511630     0.12300
H2242       H  0.78510083  0.99866628  0.47625759     0.14200
C2243       C  0.77758513  0.22095728  0.74670364    -0.01300
C2244       C  0.77664481  0.22031177  0.76053256    -0.09300
C2245       C  0.77119985  0.20927143  0.76680282    -0.18100
C2246       C  0.76654025  0.19838744  0.75939980     0.04200
C2247       C  0.76761593  0.19906817  0.74537141     0.18400
C2248       C  0.77303477  0.21026107  0.73920993    -0.19600
C2249       C  0.76328027  0.18856694  0.73753482    -0.20800
C2250       C  0.75784508  0.17737703  0.74329874    -0.19400
C2251       C  0.75654524  0.17640395  0.75705536     0.19800
C2252       C  0.76084243  0.18687798  0.76534395     0.01900
C2253       C  0.75915052  0.18535701  0.77917766    -0.14100
C2254       C  0.75334305  0.17399230  0.78448755    -0.11800
C2255       C  0.74914676  0.16370068  0.77625789     0.01500
C2256       C  0.75086508  0.16500035  0.76253857    -0.24000
H2257       H  0.77997148  0.22849305  0.76654841     0.09500
H2258       H  0.77076990  0.20956128  0.77745401     0.13000
H2259       H  0.77386942  0.21058188  0.72851335     0.11800
H2260       H  0.76409155  0.18901043  0.72684626     0.13000
H2261       H  0.75457888  0.16943136  0.73692811     0.12000
H2262       H  0.76215090  0.19279951  0.78615680     0.09100
H2263       H  0.75225115  0.17322772  0.79511996     0.12300
H2264       H  0.74753837  0.15721275  0.75601503     0.14200
C2265       C  0.69001319  0.10858285  0.85285808    -0.01300
C2266       C  0.69434221  0.11550224  0.86403513    -0.09300
C2267       C  0.69014256  0.11189759  0.87675420    -0.18100
C2268       C  0.68147971  0.10111873  0.87873681     0.04200
C2269       C  0.67667224  0.09452389  0.86733667     0.18400
C2270       C  0.68085179  0.09834532  0.85464548    -0.19600
C2271       C  0.66797259  0.08388952  0.86864016    -0.22400
C2272       C  0.66422433  0.07936104  0.88106905    -0.19400
C2273       C  0.66912803  0.08530120  0.89252754     0.19800
C2274       C  0.67770424  0.09637829  0.89155851     0.01900
C2275       C  0.68251030  0.10186439  0.90346492    -0.14100
C2276       C  0.67956068  0.09611209  0.91568530    -0.11800
C2277       C  0.67148263  0.08494352  0.91652318     0.01500
C2278       C  0.66592722  0.07986283  0.90494303    -0.24000
H2279       H  0.70129108  0.12352938  0.86303539     0.09500
H2280       H  0.69404453  0.11758821  0.88484177     0.13000
H2281       H  0.67707585  0.09307455  0.84615590     0.11800
H2282       H  0.66422289  0.07886414  0.85996883     0.13000
H2283       H  0.65768173  0.07094136  0.88171709     0.12000
H2284       H  0.68891423  0.11032686  0.90364488     0.09100
H2285       H  0.68385263  0.10028192  0.92454825     0.12300
H2286       H  0.65975041  0.07116022  0.90551578     0.14200
C2287       C  0.74714547  0.88378364  0.74058335    -0.01300
C2288       C  0.74837655  0.87219422  0.73307395    -0.09300
C2289       C  0.75329602  0.86054568  0.73867017    -0.18100
C2290       C  0.75713502  0.86001669  0.75211123     0.04200
C2291       C  0.75593331  0.87178388  0.75969123     0.18400
C2292       C  0.75105030  0.88344552  0.75391125    -0.19600
C2293       C  0.75949915  0.87184207  0.77306413    -0.20800
C2294       C  0.76402363  0.86041217  0.77916778    -0.19400
C2295       C  0.76520997  0.84862089  0.77204949     0.19800
C2296       C  0.76197470  0.84825932  0.75836130     0.01900
C2297       C  0.76371126  0.83613362  0.75159315    -0.14100
C2298       C  0.76832691  0.82488549  0.75817246    -0.11800
C2299       C  0.77118824  0.82524903  0.77171464     0.01500
C2300       C  0.76961783  0.83717229  0.77857722    -0.24000
H2301       H  0.74558547  0.87207736  0.72275363     0.09500
H2302       H  0.75388048  0.85208788  0.73223239     0.13000
H2303       H  0.75011560  0.89222197  0.75995275     0.11800
H2304       H  0.75866165  0.88078175  0.77889856     0.13000
H2305       H  0.76657652  0.86079304  0.78956618     0.12000
H2306       H  0.76163507  0.83503332  0.74120447     0.09100
H2307       H  0.76951463  0.81577904  0.75267577     0.12300
H2308       H  0.77202284  0.83756692  0.78901827     0.14200
C2309       C  0.69135159  0.94075180  0.66262757    -0.01300
C2310       C  0.69722895  0.93562996  0.65116304    -0.09300
C2311       C  0.69344111  0.94011345  0.63862183    -0.18100
C2312       C  0.68360349  0.94995240  0.63714197     0.04200
C2313       C  0.67707325  0.95444471  0.64875340     0.18400
C2314       C  0.68095193  0.94982337  0.66126680    -0.19600
C2315       C  0.66698353  0.96385239  0.64786573    -0.20800
C2316       C  0.66352909  0.96928221  0.63571442    -0.19400
C2317       C  0.67017989  0.96557296  0.62413876     0.19800
C2318       C  0.68025025  0.95576417  0.62466866     0.01900
C2319       C  0.68688476  0.95260625  0.61277097    -0.14100
C2320       C  0.68402740  0.95924528  0.60103189    -0.11800
C2321       C  0.67430666  0.96908033  0.60058380     0.01500
C2322       C  0.66715075  0.97195468  0.61211108    -0.24000
H2323       H  0.70516843  0.92852098  0.65187639     0.09500
H2324       H  0.69858031  0.93586430  0.63029457     0.13000
H2325       H  0.67603601  0.95360050  0.67002385     0.11800
H2326       H  0.66187698  0.96722364  0.65668255     0.13000
H2327       H  0.65583154  0.97670219  0.63542552     0.12000
H2328       H  0.69461711  0.94532165  0.61227355     0.09100
H2329       H  0.68959932  0.95673062  0.59222001     0.12300
H2330       H  0.65969370  0.97962619  0.61187092     0.14200
C2331       C  0.72266679  0.99103366  0.74700788    -0.01300
C2332       C  0.71057266  0.99651511  0.75073581    -0.09300
C2333       C  0.70971780  0.00949485  0.75511522    -0.18100
C2334       C  0.72099975  0.01763812  0.75564210     0.04200
C2335       C  0.73336397  0.01197719  0.75208621     0.18400
C2336       C  0.73412419  0.99868271  0.74797194    -0.19600
C2337       C  0.74478919  0.01971895  0.75238996    -0.20800
C2338       C  0.74419329  0.03296629  0.75609035    -0.19400
C2339       C  0.73216172  0.03882052  0.75962087     0.19800
C2340       C  0.72039587  0.03120268  0.75945322     0.01900
C2341       C  0.70848928  0.03750536  0.76308595    -0.14100
C2342       C  0.70831001  0.05063517  0.76706898    -0.11800
C2343       C  0.71989638  0.05807532  0.76747964     0.01500
C2344       C  0.73180067  0.05219898  0.76349612    -0.24000
H2345       H  0.70163206  0.99071689  0.75010511     0.09500
H2346       H  0.69999688  0.01287484  0.75777550     0.13000
H2347       H  0.74349900  0.99447793  0.74495325     0.11800
H2348       H  0.75424866  0.01551828  0.74967169     0.13000
H2349       H  0.75321666  0.03867147  0.75620572     0.12000
H2350       H  0.69909904  0.03257220  0.76310114     0.09100
H2351       H  0.69896551  0.05499652  0.76990945     0.12300
H2352       H  0.74083228  0.05788685  0.76385347     0.14200
C2353       C  0.24307986  0.27135044  0.37089694    -0.01300
C2354       C  0.23502696  0.27432186  0.36007431    -0.09300
C2355       C  0.24041003  0.27915545  0.34829148    -0.18100
C2356       C  0.25415865  0.28106298  0.34687735     0.04200
C2357       C  0.26230794  0.27786741  0.35784233     0.18400
C2358       C  0.25672730  0.27318899  0.36970177    -0.19600
C2359       C  0.27599609  0.27932491  0.35691079    -0.20800
C2360       C  0.28180040  0.28398890  0.34534166    -0.19400
C2361       C  0.27406269  0.28742598  0.33443488     0.19800
C2362       C  0.26011929  0.28603156  0.33502681     0.01900
C2363       C  0.25276923  0.28980375  0.32377134    -0.14100
C2364       C  0.25898336  0.29491315  0.31253888    -0.11800
C2365       C  0.27270316  0.29633735  0.31203481     0.01500
C2366       C  0.28019629  0.29242478  0.32298232    -0.24000
H2367       H  0.22445066  0.27306423  0.36074926     0.09500
H2368       H  0.23353850  0.28125079  0.34047286     0.13000
H2369       H  0.26308014  0.27075478  0.37794788     0.11800
H2370       H  0.28227131  0.27684463  0.36520438     0.13000
H2371       H  0.29242559  0.28502051  0.34496418     0.12000
H2372       H  0.24219381  0.28906732  0.32336478     0.09100
H2373       H  0.25300388  0.29774151  0.30414286     0.12300
H2374       H  0.29081315  0.29361144  0.32271407     0.14200
C2375       C  0.24040164  0.28936704  0.71483599    -0.01300
C2376       C  0.23201745  0.28475237  0.70486156    -0.09300
C2377       C  0.23712304  0.27976878  0.69297320    -0.18100
C2378       C  0.25089022  0.27913667  0.69069120     0.04200
C2379       C  0.25933598  0.28352940  0.70098843     0.18400
C2380       C  0.25406213  0.28866276  0.71280542    -0.19600
C2381       C  0.27302799  0.28274246  0.69947206    -0.20800
C2382       C  0.27856914  0.27762328  0.68796037    -0.19400
C2383       C  0.27057635  0.27339100  0.67753850     0.19800
C2384       C  0.25661405  0.27425248  0.67865007     0.01900
C2385       C  0.24905105  0.27032742  0.66759602    -0.14100
C2386       C  0.25510011  0.26567559  0.65602749    -0.11800
C2387       C  0.26885066  0.26456350  0.65509896     0.01500
C2388       C  0.27650906  0.26840826  0.66594794    -0.24000
H2389       H  0.22142581  0.28521155  0.70616460     0.09500
H2390       H  0.23004706  0.27641885  0.68579476     0.13000
H2391       H  0.26063984  0.29197661  0.72055506     0.11800
H2392       H  0.27951738  0.28603777  0.70729695     0.13000
H2393       H  0.28921098  0.27707375  0.68716139     0.12000
H2394       H  0.23844328  0.27088048  0.66752351     0.09100
H2395       H  0.24893130  0.26276523  0.64781281     0.12300
H2396       H  0.28715790  0.26779979  0.66527310     0.14200
C2397       C  0.26993310  0.25491209  0.54556294    -0.01300
C2398       C  0.27874465  0.25523396  0.53487069    -0.09300
C2399       C  0.27424288  0.25687085  0.52195256    -0.18100
C2400       C  0.26063464  0.25798838  0.51923742     0.04200
C2401       C  0.25171782  0.25783758  0.53014875     0.18400
C2402       C  0.25644260  0.25658182  0.54317164    -0.19600
C2403       C  0.23811766  0.25844289  0.52795915    -0.20800
C2404       C  0.23314725  0.25863450  0.51515070    -0.19400
C2405       C  0.24166050  0.25855244  0.50421469     0.19800
C2406       C  0.25553460  0.25870668  0.50608454     0.01900
C2407       C  0.26367121  0.25930776  0.49468135    -0.14100
C2408       C  0.25826331  0.25901338  0.48198828    -0.11800
C2409       C  0.24464357  0.25797789  0.48024275     0.01500
C2410       C  0.23637928  0.25802589  0.49139325    -0.24000
H2411       H  0.28923181  0.25410150  0.53648300     0.09500
H2412       H  0.28164700  0.25678957  0.51428740     0.13000
H2413       H  0.24955337  0.25622311  0.55139019     0.11800
H2414       H  0.23125794  0.25836789  0.53620591     0.13000
H2415       H  0.22255697  0.25869820  0.51378760     0.12000
H2416       H  0.27425274  0.25991493  0.49522584     0.09100
H2417       H  0.26481614  0.25907819  0.47350316     0.12300
H2418       H  0.22579034  0.25750282  0.49008318     0.14200
C2419       C  0.52572095  0.41792847  0.52016937    -0.01300
C2420       C  0.53378744  0.42887679  0.51767730    -0.09300
C2421       C  0.52855213  0.44066138  0.51271097    -0.18100
C2422       C  0.51491466  0.44201768  0.51013780     0.04200
C2423       C  0.50672813  0.43091791  0.51267008     0.18400
C2424       C  0.51216656  0.41904342  0.51750382    -0.19600
C2425       C  0.49311936  0.43178463  0.51052549    -0.20800
C2426       C  0.48741695  0.44349421  0.50613689    -0.19400
C2427       C  0.49517640  0.45462741  0.50358471     0.19800
C2428       C  0.50907476  0.45400168  0.50533200     0.01900
C2429       C  0.51648275  0.46541445  0.50219521    -0.14100
C2430       C  0.51034824  0.47694352  0.49769411    -0.11800
C2431       C  0.49663185  0.47762435  0.49628304     0.01500
C2432       C  0.48910823  0.46638885  0.49926218    -0.24000
H2433       H  0.54427849  0.42835595  0.51949467     0.09500
H2434       H  0.53543828  0.44859081  0.51113504     0.13000
H2435       H  0.50572564  0.41075364  0.51946284     0.11800
H2436       H  0.48679994  0.42337590  0.51240751     0.13000
H2437       H  0.47683717  0.44384205  0.50473156     0.12000
H2438       H  0.52705825  0.46573330  0.50304367     0.09100
H2439       H  0.51637562  0.48547137  0.49544863     0.12300
H2440       H  0.47850537  0.46674499  0.49799547     0.14200
C2441       C  0.52074055  0.07749692  0.49555998    -0.01300
C2442       C  0.52872063  0.08735531  0.50105608    -0.09300
C2443       C  0.52326326  0.09882248  0.50647672    -0.18100
C2444       C  0.50949094  0.10099417  0.50653143     0.04200
C2445       C  0.50134740  0.09092863  0.50117444     0.18400
C2446       C  0.50698693  0.07935830  0.49578664    -0.19600
C2447       C  0.48762640  0.09253109  0.50112982    -0.20800
C2448       C  0.48181997  0.10394916  0.50619287    -0.19400
C2449       C  0.48956806  0.11413993  0.51136183     0.19800
C2450       C  0.50352876  0.11282345  0.51157834     0.01900
C2451       C  0.51091253  0.12350248  0.51666296    -0.14100
C2452       C  0.50473524  0.13499907  0.52117333    -0.11800
C2453       C  0.49098638  0.13628039  0.52100319     0.01500
C2454       C  0.48344745  0.12571632  0.51618370    -0.24000
H2455       H  0.53934700  0.08640091  0.50089046     0.09500
H2456       H  0.53014254  0.10585740  0.51043704     0.13000
H2457       H  0.50062402  0.07177189  0.49178773     0.11800
H2458       H  0.48132650  0.08491061  0.49709635     0.13000
H2459       H  0.47117948  0.10486205  0.50595506     0.12000
H2460       H  0.52150917  0.12335915  0.51718272     0.09100
H2461       H  0.51081428  0.14290388  0.52496415     0.12300
H2462       H  0.47280623  0.12661442  0.51589744     0.14200
C2463       C  0.41131736  0.19211056  0.57466459    -0.01300
C2464       C  0.40079234  0.18347291  0.57247491    -0.09300
C2465       C  0.38837204  0.18592756  0.57808561    -0.18100
C2466       C  0.38609197  0.19716776  0.58613593     0.04200
C2467       C  0.39702192  0.20544380  0.58893581     0.18400
C2468       C  0.40940950  0.20285849  0.58323363    -0.19600
C2469       C  0.39546633  0.21650289  0.59710416    -0.20800
C2470       C  0.38316456  0.21982214  0.60222125    -0.19400
C2471       C  0.37205536  0.21227103  0.59916787     0.19800
C2472       C  0.37335282  0.20074679  0.59118308     0.01900
C2473       C  0.36174072  0.19369803  0.58810832    -0.14100
C2474       C  0.34936924  0.19835120  0.59210026    -0.11800
C2475       C  0.34814504  0.20990184  0.59962108     0.01500
C2476       C  0.35955914  0.21655620  0.60353022    -0.24000
H2477       H  0.40200503  0.17504866  0.56598953     0.09500
H2478       H  0.38070475  0.17897057  0.57575783     0.13000
H2479       H  0.41755331  0.20944198  0.58529628     0.11800
H2480       H  0.40379487  0.22278668  0.59936055     0.13000
H2481       H  0.38227053  0.22859520  0.60829787     0.12000
H2482       H  0.36183658  0.18486442  0.58217442     0.09100
H2483       H  0.34063973  0.19306460  0.58898967     0.12300
H2484       H  0.35864642  0.22560551  0.60919291     0.14200
C2485       C  0.49407580  0.24522371  0.53500342    -0.01300
C2486       C  0.50737470  0.24660778  0.53829299    -0.09300
C2487       C  0.51309714  0.25911558  0.53921884    -0.18100
C2488       C  0.50567250  0.27068078  0.53666503     0.04200
C2489       C  0.49239916  0.26913179  0.53250807     0.18400
C2490       C  0.48669409  0.25651714  0.53193856    -0.19600
C2491       C  0.48484892  0.28018957  0.52910515    -0.20800
C2492       C  0.49012346  0.29281971  0.52996476    -0.19400
C2493       C  0.50294760  0.29474407  0.53462843     0.19800
C2494       C  0.51087862  0.28370431  0.53815293     0.01900
C2495       C  0.52352658  0.28620825  0.54337605    -0.14100
C2496       C  0.52806153  0.29908654  0.54506300    -0.11800
C2497       C  0.52027823  0.30994358  0.54147312     0.01500
C2498       C  0.50777784  0.30767569  0.53608548    -0.24000
H2499       H  0.51326286  0.23800370  0.54063987     0.09500
H2500       H  0.52334628  0.25940172  0.54195134     0.13000
H2501       H  0.47643765  0.25547424  0.52914942     0.11800
H2502       H  0.47477188  0.27906405  0.52577433     0.13000
H2503       H  0.48401276  0.30116711  0.52725863     0.12000
H2504       H  0.53005102  0.27843625  0.54653569     0.09100
H2505       H  0.53780145  0.30050187  0.54914934     0.12300
H2506       H  0.50161060  0.31599577  0.53342024     0.14200
C2507       C  0.99316522  0.41840595  0.50155926    -0.01300
C2508       C  0.98534889  0.42930619  0.50497465    -0.09300
C2509       C  0.99102865  0.44099180  0.50964175    -0.18100
C2510       C  0.00486006  0.44226952  0.51095577     0.04200
C2511       C  0.01279527  0.43132962  0.50712416     0.18400
C2512       C  0.00692782  0.41956190  0.50259333    -0.19600
C2513       C  0.02655154  0.43217308  0.50789892    -0.20800
C2514       C  0.03261522  0.44357604  0.51256603    -0.19400
C2515       C  0.02510100  0.45443738  0.51669540     0.19800
C2516       C  0.01110662  0.45394984  0.51594977     0.01900
C2517       C  0.00399633  0.46513876  0.52035580    -0.14100
C2518       C  0.01047012  0.47625615  0.52530932    -0.11800
C2519       C  0.02427443  0.47673460  0.52613702     0.01500
C2520       C  0.03151388  0.46574143  0.52168907    -0.24000
H2521       H  0.97471876  0.42873668  0.50431096     0.09500
H2522       H  0.98430437  0.44884268  0.51215706     0.13000
H2523       H  0.01313515  0.41130448  0.49978715     0.11800
H2524       H  0.03268392  0.42392051  0.50491065     0.13000
H2525       H  0.04327955  0.44385261  0.51305876     0.12000
H2526       H  0.99339323  0.46560562  0.52016212     0.09100
H2527       H  0.00456301  0.48462046  0.52840290     0.12300
H2528       H  0.04217017  0.46584468  0.52237844     0.14200
C2529       C  0.99773357  0.07591616  0.52694385    -0.01300
C2530       C  0.01141994  0.07657914  0.52512030    -0.09300
C2531       C  0.01737734  0.08788319  0.51990784    -0.18100
C2532       C  0.00981943  0.09907662  0.51636764     0.04200
C2533       C  0.99595280  0.09846807  0.51842843     0.18400
C2534       C  0.99006377  0.08694758  0.52355931    -0.19600
C2535       C  0.98804523  0.10938173  0.51538538    -0.20800
C2536       C  0.99358270  0.12088471  0.51030472    -0.19400
C2537       C  0.00717435  0.12176651  0.50800567     0.19800
C2538       C  0.01549288  0.11084827  0.51091786     0.01900
C2539       C  0.02910739  0.11219539  0.50817480    -0.14100
C2540       C  0.03423170  0.12388528  0.50292075    -0.11800
C2541       C  0.02605895  0.13472748  0.50024213     0.01500
C2542       C  0.01248810  0.13352667  0.50279665    -0.24000
H2543       H  0.01757623  0.06819912  0.52758625     0.09500
H2544       H  0.02793871  0.08755225  0.51881821     0.13000
H2545       H  0.97949004  0.08663590  0.52511685     0.11800
H2546       H  0.97748211  0.10903379  0.51697662     0.13000
H2547       H  0.98716249  0.12914835  0.50810511     0.12000
H2548       H  0.03608449  0.10437653  0.50995181     0.09100
H2549       H  0.04473728  0.12444055  0.50115122     0.12300
H2550       H  0.00597481  0.14172242  0.50064577     0.14200
C2551       C  0.10636911  0.19201893  0.45065920    -0.01300
C2552       C  0.10674530  0.20140597  0.44051007    -0.09300
C2553       C  0.11850586  0.20431306  0.43395216    -0.18100
C2554       C  0.13044380  0.19816560  0.43765882     0.04200
C2555       C  0.12993940  0.18840875  0.44779338     0.18400
C2556       C  0.11789618  0.18520031  0.45394642    -0.19600
C2557       C  0.14155185  0.18242398  0.45221198    -0.20800
C2558       C  0.15372858  0.18644847  0.44734090    -0.19400
C2559       C  0.15456645  0.19633428  0.43770750     0.19800
C2560       C  0.14293683  0.20192447  0.43227682     0.01900
C2561       C  0.14439153  0.21142024  0.42208965    -0.14100
C2562       C  0.15684793  0.21605770  0.41839359    -0.11800
C2563       C  0.16817306  0.21137206  0.42470251     0.01500
C2564       C  0.16699116  0.20110295  0.43391722    -0.24000
H2565       H  0.09789329  0.20673195  0.43779283     0.09500
H2566       H  0.11801995  0.21184196  0.42644571     0.13000
H2567       H  0.11765157  0.17803927  0.46191452     0.11800
H2568       H  0.14125668  0.17495876  0.45988288     0.13000
H2569       H  0.16257459  0.18201924  0.45137433     0.12000
H2570       H  0.13608667  0.21569150  0.41702940     0.09100
H2571       H  0.15753709  0.22386633  0.41111411     0.12300
H2572       H  0.17577172  0.19718140  0.43858216     0.14200
C2573       C  0.02398944  0.24432595  0.49096454    -0.01300
C2574       C  0.03115418  0.25481964  0.49634134    -0.09300
C2575       C  0.02601967  0.26761302  0.49640687    -0.18100
C2576       C  0.01359425  0.27038016  0.49074740     0.04200
C2577       C  0.00638824  0.25963857  0.48528320     0.18400
C2578       C  0.01151188  0.24674894  0.48566758    -0.19600
C2579       C  0.99424347  0.26185662  0.47917957    -0.20800
C2580       C  0.98908161  0.27452137  0.47832187    -0.19400
C2581       C  0.99585374  0.28527962  0.48368710     0.19800
C2582       C  0.00815439  0.28340270  0.49007684     0.01900
C2583       C  0.01443739  0.29465992  0.49544284    -0.14100
C2584       C  0.00879992  0.30722905  0.49433598    -0.11800
C2585       C  0.99674222  0.30904496  0.48785576     0.01500
C2586       C  0.99033508  0.29793089  0.48264336    -0.24000
H2587       H  0.04084792  0.25311718  0.50046853     0.09500
H2588       H  0.03214322  0.27515444  0.50069071     0.13000
H2589       H  0.00604010  0.23867356  0.48129497     0.11800
H2590       H  0.98874946  0.25374846  0.47491370     0.13000
H2591       H  0.97969483  0.27590929  0.47342493     0.12000
H2592       H  0.02371243  0.29408657  0.50057071     0.09100
H2593       H  0.01401220  0.31555049  0.49849354     0.12300
H2594       H  0.98092950  0.29900219  0.47775616     0.14200
C2595       C  0.77504698  0.27992513  0.36960708    -0.01300
C2596       C  0.76130452  0.27852298  0.36906202    -0.09300
C2597       C  0.75498260  0.27473499  0.35739876    -0.18100
C2598       C  0.76219945  0.27206141  0.34571048     0.04200
C2599       C  0.77617564  0.27310379  0.34632516     0.18400
C2600       C  0.78243395  0.27715189  0.35813830    -0.19600
C2601       C  0.78380131  0.27009344  0.33513379    -0.20800
C2602       C  0.77786804  0.26617142  0.32334807    -0.19400
C2603       C  0.76412127  0.26532964  0.32233733     0.19800
C2604       C  0.75606699  0.26836174  0.33347313     0.01900
C2605       C  0.74222726  0.26766739  0.33181307    -0.14100
C2606       C  0.73666246  0.26394765  0.31971462    -0.11800
C2607       C  0.74460850  0.26068914  0.30881711     0.01500
C2608       C  0.75837889  0.26147306  0.31023744    -0.24000
H2609       H  0.75527680  0.28060697  0.37767125     0.09500
H2610       H  0.74440788  0.27394397  0.35788581     0.13000
H2611       H  0.79307631  0.27799120  0.35843647     0.11800
H2612       H  0.79445333  0.27074911  0.33550076     0.13000
H2613       H  0.78409169  0.26387478  0.31491457     0.12000
H2614       H  0.73540483  0.26997054  0.33967398     0.09100
H2615       H  0.72603532  0.26331723  0.31898946     0.12300
H2616       H  0.76466449  0.25914910  0.30185397     0.14200
C2617       C  0.85067468  0.33565393  0.43017453    -0.01300
C2618       C  0.86167612  0.33383824  0.42196214    -0.09300
C2619       C  0.87396631  0.33912694  0.42535113    -0.18100
C2620       C  0.87568509  0.34647644  0.43715713     0.04200
C2621       C  0.86437078  0.34880084  0.44514626     0.18400
C2622       C  0.85208982  0.34344647  0.44160520    -0.19600
C2623       C  0.86541240  0.35622744  0.45679276    -0.20800
C2624       C  0.87752230  0.36119250  0.46085290    -0.19400
C2625       C  0.88895853  0.35874931  0.45346004     0.19800
C2626       C  0.88821027  0.35138427  0.44147055     0.01900
C2627       C  0.90010704  0.34888516  0.43457984    -0.14100
C2628       C  0.91220881  0.35302774  0.43965085    -0.11800
C2629       C  0.91292240  0.36008074  0.45155262     0.01500
C2630       C  0.90121570  0.36322566  0.45824022    -0.24000
H2631       H  0.86091803  0.32794702  0.41306229     0.09500
H2632       H  0.88196457  0.33714685  0.41859877     0.13000
H2633       H  0.84363635  0.34523573  0.44793548     0.11800
H2634       H  0.85680709  0.35808860  0.46290403     0.13000
H2635       H  0.87798541  0.36675977  0.46999829     0.12000
H2636       H  0.90044654  0.34339426  0.42545888     0.09100
H2637       H  0.92114354  0.35049322  0.43431616     0.12300
H2638       H  0.90171531  0.36850568  0.46755838     0.14200
C2639       C  0.74372878  0.28199319  0.65381006    -0.01300
C2640       C  0.73613715  0.27943863  0.66514288    -0.09300
C2641       C  0.74188572  0.27417794  0.67658306    -0.18100
C2642       C  0.75555923  0.27139591  0.67714534     0.04200
C2643       C  0.76325582  0.27424312  0.66571689     0.18400
C2644       C  0.75731251  0.27934073  0.65423286    -0.19600
C2645       C  0.77688609  0.27206546  0.66581426    -0.20800
C2646       C  0.78309089  0.26715765  0.67703553    -0.19400
C2647       C  0.77581402  0.26407220  0.68840747     0.19800
C2648       C  0.76191320  0.26599774  0.68860471     0.01900
C2649       C  0.75501709  0.26232313  0.70022502    -0.14100
C2650       C  0.76164296  0.25703857  0.71113785    -0.11800
C2651       C  0.77536398  0.25532157  0.71096684     0.01500
C2652       C  0.78237693  0.25894254  0.69954753    -0.24000
H2653       H  0.72563811  0.28135028  0.66514518     0.09500
H2654       H  0.73538035  0.27249063  0.68486088     0.13000
H2655       H  0.76338822  0.28145031  0.64565697     0.11800
H2656       H  0.78282415  0.27425400  0.65715445     0.13000
H2657       H  0.79366976  0.26567251  0.67677830     0.12000
H2658       H  0.74447637  0.26329149  0.70114276     0.09100
H2659       H  0.75598611  0.25438463  0.71984637     0.12300
H2660       H  0.79296149  0.25747569  0.69922024     0.14200
C2661       C  0.66629308  0.33973460  0.59860781    -0.01300
C2662       C  0.66558970  0.35012524  0.58948908    -0.09300
C2663       C  0.65346335  0.35540090  0.58563880    -0.18100
C2664       C  0.64150230  0.35021652  0.59059841     0.04200
C2665       C  0.64229607  0.34016756  0.60042380     0.18400
C2666       C  0.65462753  0.33517081  0.60446229    -0.19600
C2667       C  0.63075841  0.33475651  0.60573799    -0.20800
C2668       C  0.61845627  0.33875553  0.60120152    -0.19400
C2669       C  0.61734545  0.34826505  0.59121018     0.19800
C2670       C  0.62881765  0.35429747  0.58587329     0.01900
C2671       C  0.62705979  0.36383529  0.57577065    -0.14100
C2672       C  0.61448588  0.36697440  0.57098594    -0.11800
C2673       C  0.60322883  0.36075536  0.57605867     0.01500
C2674       C  0.60479101  0.35155261  0.58634257    -0.24000
H2675       H  0.67450385  0.35396296  0.58499643     0.09500
H2676       H  0.65377598  0.36324538  0.57845917     0.13000
H2677       H  0.65508270  0.32712099  0.61150919     0.11800
H2678       H  0.63125244  0.32715675  0.61326251     0.13000
H2679       H  0.60973605  0.33417113  0.60536655     0.12000
H2680       H  0.63521990  0.36888869  0.57120044     0.09100
H2681       H  0.61363947  0.37407876  0.56303864     0.12300
H2682       H  0.59620326  0.34678875  0.59056006     0.14200
C2683       C  0.74412279  0.29189805  0.54443639    -0.01300
C2684       C  0.73549327  0.29088920  0.53369066    -0.09300
C2685       C  0.74025105  0.28895786  0.52084328    -0.18100
C2686       C  0.75393228  0.28823994  0.51824511     0.04200
C2687       C  0.76265374  0.28903127  0.52922763     0.18400
C2688       C  0.75769247  0.29061051  0.54216757    -0.19600
C2689       C  0.77629757  0.28870656  0.52719014    -0.20800
C2690       C  0.78149820  0.28817163  0.51445414    -0.19400
C2691       C  0.77319071  0.28774242  0.50343324     0.19800
C2692       C  0.75929257  0.28732647  0.50514151     0.01900
C2693       C  0.75141635  0.28638762  0.49362120    -0.14100
C2694       C  0.75708675  0.28675636  0.48096620    -0.11800
C2695       C  0.77072336  0.28811613  0.47939062     0.01500
C2696       C  0.77872387  0.28816683  0.49068270    -0.24000
H2697       H  0.72494961  0.29167714  0.53520444     0.09500
H2698       H  0.73298032  0.28844798  0.51312159     0.13000
H2699       H  0.76444768  0.29146746  0.55040902     0.11800
H2700       H  0.78300770  0.28925229  0.53549135     0.13000
H2701       H  0.79211128  0.28833615  0.51320674     0.12000
H2702       H  0.74083732  0.28559886  0.49405522     0.09100
H2703       H  0.75071340  0.28656528  0.47239650     0.12300
H2704       H  0.78932963  0.28886743  0.48955700     0.14200
C2705       C  0.52247982  0.04403055  0.45872752    -0.01300
C2706       C  0.52115720  0.05221190  0.44766628    -0.09300
C2707       C  0.51681778  0.04713546  0.43557409    -0.18100
C2708       C  0.51343757  0.03365076  0.43423382     0.04200
C2709       C  0.51465884  0.02544384  0.44558907     0.18400
C2710       C  0.51929362  0.03063980  0.45760289    -0.19600
C2711       C  0.51115335  0.01211444  0.44492968    -0.20800
C2712       C  0.50624650  0.00676220  0.43328549    -0.19400
C2713       C  0.50487349  0.01455660  0.42194372     0.19800
C2714       C  0.50866579  0.02805320  0.42215302     0.01900
C2715       C  0.50739942  0.03534051  0.41028484    -0.14100
C2716       C  0.50212540  0.02959913  0.39888917    -0.11800
C2717       C  0.49792698  0.01642442  0.39887745     0.01500
C2718       C  0.49956276  0.00892683  0.41042606    -0.24000
H2719       H  0.52371302  0.06256486  0.44833421     0.09500
H2720       H  0.51609668  0.05404116  0.42751104     0.13000
H2721       H  0.52029157  0.02429191  0.46618015     0.11800
H2722       H  0.51205670  0.00581047  0.45354054     0.13000
H2723       H  0.50344382  0.99644790  0.43317165     0.12000
H2724       H  0.51031715  0.04552442  0.40950116     0.09100
H2725       H  0.50107980  0.03566070  0.39014539     0.12300
H2726       H  0.49665119  0.99865149  0.41052591     0.14200
C2727       C  0.50010065  0.04438650  0.12119363    -0.01300
C2728       C  0.50022039  0.03055820  0.12080651    -0.09300
C2729       C  0.50508414  0.02373609  0.10978495    -0.18100
C2730       C  0.51020090  0.03052262  0.09867135     0.04200
C2731       C  0.51036038  0.04455504  0.09918345     0.18400
C2732       C  0.50522859  0.05132484  0.11030301    -0.19600
C2733       C  0.51560584  0.05173831  0.08856420    -0.20800
C2734       C  0.52055242  0.04531951  0.07739107    -0.19400
C2735       C  0.52031522  0.03152489  0.07645284     0.19800
C2736       C  0.51512627  0.02391638  0.08708012     0.01900
C2737       C  0.51500481  0.01003366  0.08557123    -0.14100
C2738       C  0.51975522  0.00400137  0.07403682    -0.11800
C2739       C  0.52485699  0.01148027  0.06352533     0.01500
C2740       C  0.52515280  0.02529856  0.06489340    -0.24000
H2741       H  0.49626498  0.02490190  0.12898702     0.09500
H2742       H  0.50469081  0.01313127  0.11028790     0.13000
H2743       H  0.50533890  0.06201673  0.11052286     0.11800
H2744       H  0.51586101  0.06242324  0.08888374     0.13000
H2745       H  0.52450803  0.05121229  0.06936467     0.12000
H2746       H  0.51124667  0.00352728  0.09310901     0.09100
H2747       H  0.51956460  0.99333621  0.07342708     0.12300
H2748       H  0.52892396  0.03126370  0.05683048     0.14200
C2749       C  0.46691448  0.04208146  0.22635559    -0.01300
C2750       C  0.45473248  0.04075399  0.23274764    -0.09300
C2751       C  0.45396815  0.03679370  0.24592766    -0.18100
C2752       C  0.46548078  0.03420575  0.25332803     0.04200
C2753       C  0.47786271  0.03546096  0.24678813     0.18400
C2754       C  0.47846589  0.03917933  0.23335400    -0.19600
C2755       C  0.48955293  0.03322697  0.25376816    -0.20800
C2756       C  0.48922905  0.02983942  0.26712109    -0.19400
C2757       C  0.47720204  0.02843531  0.27381307     0.19800
C2758       C  0.46514069  0.03051556  0.26698307     0.01900
C2759       C  0.45325280  0.02872706  0.27410903    -0.14100
C2760       C  0.45334727  0.02475874  0.28731077    -0.11800
C2761       C  0.46521905  0.02264051  0.29397732     0.01500
C2762       C  0.47714174  0.02472937  0.28725064    -0.24000
H2763       H  0.44566749  0.04282302  0.22750813     0.09500
H2764       H  0.44420330  0.03607211  0.25005644     0.13000
H2765       H  0.48794065  0.04029928  0.22849287     0.11800
H2766       H  0.49902995  0.03419841  0.24888691     0.13000
H2767       H  0.49846215  0.02822290  0.27223265     0.12000
H2768       H  0.44368826  0.03009176  0.26974482     0.09100
H2769       H  0.44401739  0.02330228  0.29234402     0.12300
H2770       H  0.48637328  0.02297711  0.29232763     0.14200
C2771       C  0.70855103  0.26279160  0.27438844    -0.01300
C2772       C  0.69740290  0.25488467  0.27245380    -0.09300
C2773       C  0.68556802  0.26028554  0.26781043    -0.18100
C2774       C  0.68450566  0.27386790  0.26469325     0.04200
C2775       C  0.69596731  0.28178378  0.26627076     0.18400
C2776       C  0.70773419  0.27626855  0.27128223    -0.19600
C2777       C  0.69562885  0.29515254  0.26277456    -0.20800
C2778       C  0.68415983  0.30087017  0.25782427    -0.19400
C2779       C  0.67259225  0.29346653  0.25648842     0.19800
C2780       C  0.67255310  0.27987732  0.26001749     0.01900
C2781       C  0.66049692  0.27297872  0.25887895    -0.14100
C2782       C  0.64903857  0.27927525  0.25443291    -0.11800
C2783       C  0.64910694  0.29263654  0.25078993     0.01500
C2784       C  0.66101824  0.29963206  0.25178575    -0.24000
H2785       H  0.69780209  0.24444759  0.27472905     0.09500
H2786       H  0.67745787  0.25354038  0.26663439     0.13000
H2787       H  0.71636787  0.28242348  0.27255724     0.11800
H2788       H  0.70433441  0.30123913  0.26382435     0.13000
H2789       H  0.68429899  0.31123014  0.25517578     0.12000
H2790       H  0.65955270  0.26272267  0.26151798     0.09100
H2791       H  0.64008471  0.27353674  0.25372961     0.12300
H2792       H  0.66125055  0.30999510  0.24916540     0.14200
C2793       C  0.36522028  0.26635448  0.24761268    -0.01300
C2794       C  0.35482307  0.25814177  0.25154340    -0.09300
C2795       C  0.34342373  0.26338095  0.25738099    -0.18100
C2796       C  0.34194914  0.27713984  0.25934080     0.04200
C2797       C  0.35242243  0.28544805  0.25508667     0.18400
C2798       C  0.36391860  0.28001788  0.24944616    -0.19600
C2799       C  0.35135793  0.29915553  0.25642896    -0.20800
C2800       C  0.34012239  0.30483222  0.26193794    -0.19400
C2801       C  0.32970965  0.29695175  0.26641699     0.19800
C2802       C  0.33047958  0.28298046  0.26527615     0.01900
C2803       C  0.31976295  0.27550860  0.27019812    -0.14100
C2804       C  0.30877024  0.28165484  0.27590681    -0.11800
C2805       C  0.30800031  0.29544085  0.27693082     0.01500
C2806       C  0.31855772  0.30300224  0.27212138    -0.24000
H2807       H  0.35556938  0.24755517  0.25030501     0.09500
H2808       H  0.33591707  0.25640671  0.26017945     0.13000
H2809       H  0.37180366  0.28650411  0.24628135     0.11800
H2810       H  0.35926786  0.30555380  0.25314577     0.13000
H2811       H  0.33961257  0.31548259  0.26277685     0.12000
H2812       H  0.31959177  0.26488933  0.26983520     0.09100
H2813       H  0.30073312  0.27554505  0.27939956     0.12300
H2814       H  0.31822112  0.31365362  0.27304587     0.14200
C2815       C  0.43811338  0.12334831  0.16930986    -0.01300
C2816       C  0.42616447  0.12488413  0.17617642    -0.09300
C2817       C  0.42168827  0.13736832  0.18004814    -0.18100
C2818       C  0.42919050  0.14880666  0.17736336     0.04200
C2819       C  0.44104336  0.14722785  0.16992274     0.18400
C2820       C  0.44526015  0.13463231  0.16582175    -0.19600
C2821       C  0.44893452  0.15816719  0.16707077    -0.20800
C2822       C  0.44560809  0.17058262  0.17185682    -0.19400
C2823       C  0.43425640  0.17240922  0.17955289     0.19800
C2824       C  0.42567800  0.16165359  0.18218703     0.01900
C2825       C  0.41421565  0.16422156  0.18984905    -0.14100
C2826       C  0.41179406  0.17677502  0.19519913    -0.11800
C2827       C  0.42068872  0.18713061  0.19311072     0.01500
C2828       C  0.43168095  0.18491262  0.18494675    -0.24000
H2829       H  0.42034718  0.11632901  0.17883133     0.09500
H2830       H  0.41253031  0.13769791  0.18547259     0.13000
H2831       H  0.45454166  0.13356777  0.16058088     0.11800
H2832       H  0.45794067  0.15705931  0.16137403     0.13000
H2833       H  0.45212297  0.17878537  0.16973826     0.12000
H2834       H  0.40707704  0.15667830  0.19209054     0.09100
H2835       H  0.40318049  0.17823290  0.20138933     0.12300
H2836       H  0.43846855  0.19291941  0.18295445     0.14200
C2837       C  0.53907898  0.29428991  0.24057276    -0.01300
C2838       C  0.52840483  0.30306985  0.24005960    -0.09300
C2839       C  0.51542807  0.29851144  0.24043582    -0.18100
C2840       C  0.51263686  0.28486795  0.24105017     0.04200
C2841       C  0.52349982  0.27599515  0.24195481     0.18400
C2842       C  0.53654833  0.28077491  0.24196663    -0.19600
C2843       C  0.52129128  0.26237261  0.24229586    -0.20800
C2844       C  0.50859327  0.25733359  0.24120823    -0.19400
C2845       C  0.49773482  0.26578467  0.23997685     0.19800
C2846       C  0.49952891  0.27968481  0.24027635     0.01900
C2847       C  0.48813331  0.28774211  0.23948400    -0.14100
C2848       C  0.47560272  0.28222448  0.23787646    -0.11800
C2849       C  0.47398596  0.26854304  0.23690608     0.01500
C2850       C  0.48510023  0.26038833  0.23820115    -0.24000
H2851       H  0.53009794  0.31357979  0.23915338     0.09500
H2852       H  0.50781510  0.30590285  0.23978426     0.13000
H2853       H  0.54474409  0.27390626  0.24228875     0.11800
H2854       H  0.52948404  0.25554096  0.24303350     0.13000
H2855       H  0.50727519  0.24672369  0.24114761     0.12000
H2856       H  0.48857618  0.29835162  0.23996991     0.09100
H2857       H  0.46718657  0.28874344  0.23699462     0.12300
H2858       H  0.48394003  0.24976760  0.23777186     0.14200
C2859       C  0.30896345  0.76646289  0.25196029    -0.01300
C2860       C  0.31942755  0.75809101  0.25531385    -0.09300
C2861       C  0.33079688  0.76297414  0.26128448    -0.18100
C2862       C  0.33214892  0.77654383  0.26420760     0.04200
C2863       C  0.32151923  0.78506967  0.26081145     0.18400
C2864       C  0.31010504  0.78000135  0.25467775    -0.19600
C2865       C  0.32238154  0.79859149  0.26354187    -0.20800
C2866       C  0.33365834  0.80387075  0.26931540    -0.19400
C2867       C  0.34438733  0.79577697  0.27254284     0.19800
C2868       C  0.34372872  0.78196774  0.27018955     0.01900
C2869       C  0.35477503  0.77422423  0.27377732    -0.14100
C2870       C  0.36614698  0.77999883  0.27895290    -0.11800
C2871       C  0.36694733  0.79365599  0.28090588     0.01500
C2872       C  0.35587469  0.80145199  0.27790238    -0.24000
H2873       H  0.31884807  0.74762632  0.25320806     0.09500
H2874       H  0.33836098  0.75584020  0.26343932     0.13000
H2875       H  0.30201622  0.78654763  0.25221653     0.11800
H2876       H  0.31431815  0.80516254  0.26108249     0.13000
H2877       H  0.33404089  0.81440014  0.27114647     0.12000
H2878       H  0.35501913  0.76366916  0.27259798     0.09100
H2879       H  0.37437815  0.77366877  0.28142550     0.12300
H2880       H  0.35628696  0.81203106  0.27935754     0.14200
C2881       C  0.42021703  0.87659935  0.32855906    -0.01300
C2882       C  0.41108101  0.88654935  0.32571696    -0.09300
C2883       C  0.41254907  0.89920128  0.33104838    -0.18100
C2884       C  0.42325120  0.90225639  0.33947068     0.04200
C2885       C  0.43193438  0.89183677  0.34302033     0.18400
C2886       C  0.43038965  0.87922750  0.33751749    -0.19600
C2887       C  0.44238074  0.89414223  0.35171600    -0.20800
C2888       C  0.44483251  0.90676012  0.35646642    -0.19400
C2889       C  0.43703420  0.91741719  0.35245657     0.19800
C2890       C  0.42597254  0.91530871  0.34409871     0.01900
C2891       C  0.41856831  0.92646365  0.34018952    -0.14100
C2892       C  0.42253816  0.93918528  0.34365737    -0.11800
C2893       C  0.43381939  0.94123577  0.35133871     0.01500
C2894       C  0.44068392  0.93026182  0.35618298    -0.24000
H2895       H  0.40305593  0.88470589  0.31893177     0.09500
H2896       H  0.40528611  0.90642002  0.32820741     0.13000
H2897       H  0.43730612  0.87147319  0.34005109     0.11800
H2898       H  0.44890418  0.88618136  0.35461592     0.13000
H2899       H  0.45320351  0.90827238  0.36292064     0.12000
H2900       H  0.40997593  0.92573890  0.33400283     0.09100
H2901       H  0.41691071  0.94749866  0.34000231     0.12300
H2902       H  0.44943538  0.93171792  0.36211890     0.14200
C2903       C  0.70804332  0.79754261  0.24190293    -0.01300
C2904       C  0.69786866  0.80569998  0.24661310    -0.09300
C2905       C  0.68650341  0.80037375  0.25241114    -0.18100
C2906       C  0.68489975  0.78657123  0.25382970     0.04200
C2907       C  0.69525002  0.77831399  0.24910779     0.18400
C2908       C  0.70656765  0.78381307  0.24311667    -0.19600
C2909       C  0.69431263  0.76460065  0.25052092    -0.20800
C2910       C  0.68336857  0.75888416  0.25657785    -0.19400
C2911       C  0.67292919  0.76669094  0.26121883     0.19800
C2912       C  0.67347463  0.78065317  0.25980164     0.01900
C2913       C  0.66250128  0.78803405  0.26432860    -0.14100
C2914       C  0.65147531  0.78182490  0.26987687    -0.11800
C2915       C  0.65097234  0.76806653  0.27133203     0.01500
C2916       C  0.66185938  0.76058154  0.26710795    -0.24000
H2917       H  0.69865089  0.81631931  0.24572196     0.09500
H2918       H  0.67920130  0.80733933  0.25579465     0.13000
H2919       H  0.71441590  0.77738051  0.23968841     0.11800
H2920       H  0.70215945  0.75823010  0.24698417     0.13000
H2921       H  0.68302797  0.74824183  0.25754966     0.12000
H2922       H  0.66205323  0.79862659  0.26356676     0.09100
H2923       H  0.64329863  0.78790258  0.27313190     0.12300
H2924       H  0.66156949  0.74993335  0.26804748     0.14200
C2925       C  0.54282471  0.77102521  0.29171473    -0.01300
C2926       C  0.53229244  0.76258599  0.29467005    -0.09300
C2927       C  0.51928323  0.76690099  0.29382476    -0.18100
C2928       C  0.51626856  0.77997189  0.29006799     0.04200
C2929       C  0.52695983  0.78861652  0.28723014     0.18400
C2930       C  0.54008569  0.78402716  0.28783682    -0.19600
C2931       C  0.52446704  0.80183509  0.28406564    -0.20800
C2932       C  0.51161720  0.80669990  0.28389041    -0.19400
C2933       C  0.50089662  0.79839376  0.28653324     0.19800
C2934       C  0.50304464  0.78482588  0.28932046     0.01900
C2935       C  0.49184584  0.77671263  0.29124179    -0.14100
C2936       C  0.47910863  0.78196339  0.29096561    -0.11800
C2937       C  0.47707104  0.79545443  0.28893181     0.01500
C2938       C  0.48802118  0.80359110  0.28653274    -0.24000
H2939       H  0.53407809  0.75247488  0.29761849     0.09500
H2940       H  0.51182621  0.75980838  0.29644066     0.13000
H2941       H  0.54816950  0.79068857  0.28571525     0.11800
H2942       H  0.53252673  0.80851958  0.28193875     0.13000
H2943       H  0.51005188  0.81703970  0.28165026     0.12000
H2944       H  0.49257562  0.76625275  0.29296296     0.09100
H2945       H  0.47083243  0.77547633  0.29280294     0.12300
H2946       H  0.48652193  0.81402353  0.28469982     0.14200
C2947       C  0.51494394  0.51370820  0.12158259    -0.01300
C2948       C  0.51073660  0.50566122  0.11112113    -0.09300
C2949       C  0.50472347  0.51110777  0.09988536    -0.18100
C2950       C  0.50281858  0.52490559  0.09865285     0.04200
C2951       C  0.50730107  0.53301858  0.10919632     0.18400
C2952       C  0.51316615  0.52740260  0.12046932    -0.19600
C2953       C  0.50597052  0.54674481  0.10844293    -0.20800
C2954       C  0.50029935  0.55264847  0.09743381    -0.19400
C2955       C  0.49566492  0.54499162  0.08691673     0.19800
C2956       C  0.49673986  0.53099617  0.08737485     0.01900
C2957       C  0.49163634  0.52378565  0.07654421    -0.14100
C2958       C  0.48586183  0.53021400  0.06572846    -0.11800
C2959       C  0.48501292  0.54402995  0.06524258     0.01500
C2960       C  0.48993464  0.55131270  0.07594566    -0.24000
H2961       H  0.51193440  0.49506100  0.11167075     0.09500
H2962       H  0.50172802  0.50427544  0.09229898     0.13000
H2963       H  0.51654266  0.53381473  0.12833116     0.11800
H2964       H  0.50940076  0.55298971  0.11642481     0.13000
H2965       H  0.49949398  0.56331034  0.09716803     0.12000
H2966       H  0.49194889  0.51316289  0.07615402     0.09100
H2967       H  0.48224295  0.52432344  0.05757443     0.12300
H2968       H  0.48915761  0.56198297  0.07581703     0.14200
C2969       C  0.57371317  0.43622197  0.17556149    -0.01300
C2970       C  0.58538488  0.43481352  0.18283163    -0.09300
C2971       C  0.59026010  0.42232415  0.18615574    -0.18100
C2972       C  0.58342306  0.41073275  0.18252965     0.04200
C2973       C  0.57166936  0.41223641  0.17500440     0.18400
C2974       C  0.56708378  0.42485448  0.17142528    -0.19600
C2975       C  0.56429835  0.40115493  0.17143749    -0.20800
C2976       C  0.56811696  0.38862147  0.17546185    -0.19400
C2977       C  0.57949414  0.38680616  0.18304060     0.19800
C2978       C  0.58751512  0.39775714  0.18645570     0.01900
C2979       C  0.59907763  0.39520080  0.19387690    -0.14100
C2980       C  0.60207338  0.38243396  0.19834297    -0.11800
C2981       C  0.59368716  0.37182409  0.19556189     0.01500
C2982       C  0.58265683  0.37408418  0.18752458    -0.24000
H2983       H  0.59074472  0.44345203  0.18608398     0.09500
H2984       H  0.59920722  0.42207442  0.19186477     0.13000
H2985       H  0.55796830  0.42583497  0.16594701     0.11800
H2986       H  0.55533860  0.40221238  0.16572544     0.13000
H2987       H  0.56200426  0.38028658  0.17277478     0.12000
H2988       H  0.60586973  0.40289974  0.19658050     0.09100
H2989       H  0.61072232  0.38098408  0.20441484     0.12300
H2990       H  0.57626783  0.36592969  0.18494892     0.14200
C2991       C  0.51834425  0.54419453  0.40343599    -0.01300
C2992       C  0.51661143  0.53046391  0.40379538    -0.09300
C2993       C  0.51153983  0.52418572  0.41503959    -0.18100
C2994       C  0.50792759  0.53144212  0.42645616     0.04200
C2995       C  0.50928543  0.54539662  0.42595131     0.18400
C2996       C  0.51452535  0.55159207  0.41458432    -0.19600
C2997       C  0.50545725  0.55308965  0.43683070    -0.20800
C2998       C  0.50049144  0.54722911  0.44827540    -0.19400
C2999       C  0.49936545  0.53348965  0.44924476     0.19800
C3000       C  0.50308669  0.52538272  0.43835304     0.01900
C3001       C  0.50198673  0.51156040  0.43994119    -0.14100
C3002       C  0.49745079  0.50605402  0.45179569    -0.11800
C3003       C  0.49377312  0.51403205  0.46254221     0.01500
C3004       C  0.49468513  0.52780122  0.46111372    -0.24000
H3005       H  0.51939551  0.52441711  0.39541147     0.09500
H3006       H  0.51058011  0.51361825  0.41447130     0.13000
H3007       H  0.51554934  0.56222728  0.41442996     0.11800
H3008       H  0.50634915  0.56373891  0.43650678     0.13000
H3009       H  0.49766058  0.55349765  0.45650280     0.12000
H3010       H  0.50466086  0.50470069  0.43224026     0.09100
H3011       H  0.49667714  0.49542068  0.45248330     0.12300
H3012       H  0.49201807  0.53411519  0.46936362     0.14200
C3013       C  0.56969745  0.62674456  0.34785468    -0.01300
C3014       C  0.57839303  0.62735377  0.33705877    -0.09300
C3015       C  0.58440609  0.63918041  0.33340011    -0.18100
C3016       C  0.58172308  0.65100818  0.34030521     0.04200
C3017       C  0.57323266  0.65029077  0.35155013     0.18400
C3018       C  0.56753352  0.63816276  0.35538068    -0.19600
C3019       C  0.57000160  0.66179558  0.35851807    -0.20800
C3020       C  0.57452011  0.67404761  0.35423585    -0.19400
C3021       C  0.58262939  0.67510896  0.34303113     0.19800
C3022       C  0.58670655  0.66357599  0.33613940     0.01900
C3023       C  0.59534865  0.66519670  0.32520467    -0.14100
C3024       C  0.59925933  0.67775255  0.32095465    -0.11800
C3025       C  0.59462132  0.68911371  0.32732784     0.01500
C3026       C  0.58647425  0.68767857  0.33851409    -0.24000
H3027       H  0.58034032  0.61863082  0.33116424     0.09500
H3028       H  0.59071529  0.63881461  0.32481173     0.13000
H3029       H  0.56074047  0.63779778  0.36367959     0.11800
H3030       H  0.56359415  0.66136790  0.36711169     0.13000
H3031       H  0.57150395  0.68278964  0.35964148     0.12000
H3032       H  0.59917968  0.65696134  0.31964588     0.09100
H3033       H  0.60555978  0.67857349  0.31232236     0.12300
H3034       H  0.58298991  0.69640675  0.34366239     0.14200
C3035       C  0.53603591  0.54448334  0.29454187    -0.01300
C3036       C  0.53969315  0.53130573  0.29263117    -0.09300
C3037       C  0.54068295  0.52600747  0.27988331    -0.18100
C3038       C  0.53790450  0.53374999  0.26855240     0.04200
C3039       C  0.53377702  0.54699743  0.27058249     0.18400
C3040       C  0.53298391  0.55222990  0.28344639    -0.19600
C3041       C  0.53052311  0.55498040  0.25976080    -0.20800
C3042       C  0.53136192  0.55011884  0.24690359    -0.19400
C3043       C  0.53566189  0.53720474  0.24451153     0.19800
C3044       C  0.53907127  0.52885913  0.25530709     0.01900
C3045       C  0.54365392  0.51602848  0.25235769    -0.14100
C3046       C  0.54481277  0.51168828  0.23931287    -0.11800
C3047       C  0.54140556  0.51987431  0.22866967     0.01500
C3048       C  0.53671502  0.53262301  0.23136849    -0.24000
H3049       H  0.54212145  0.52512186  0.30101301     0.09500
H3050       H  0.54364817  0.51582138  0.27925335     0.13000
H3051       H  0.52991804  0.56238956  0.28480853     0.11800
H3052       H  0.52730039  0.56507482  0.26125084     0.13000
H3053       H  0.52875788  0.55655965  0.23876085     0.12000
H3054       H  0.54655342  0.50911495  0.25989486     0.09100
H3055       H  0.54830090  0.50173461  0.23762551     0.12300
H3056       H  0.53414459  0.53909235  0.22323707     0.14200
C3057       C  0.26779934  0.38417655  0.77603223    -0.01300
C3058       C  0.26578923  0.38322463  0.76233842    -0.09300
C3059       C  0.26063069  0.37176511  0.75667816    -0.18100
C3060       C  0.25718408  0.36076870  0.76456994     0.04200
C3061       C  0.25931778  0.36172294  0.77844278     0.18400
C3062       C  0.26463063  0.37329091  0.78399528    -0.19600
C3063       C  0.25603333  0.35115854  0.78673211    -0.20800
C3064       C  0.25062633  0.33966000  0.78157197    -0.19400
C3065       C  0.24838376  0.33838864  0.76797270     0.19800
C3066       C  0.25166106  0.34890065  0.75924416     0.01900
C3067       C  0.24922862  0.34705224  0.74558995    -0.14100
C3068       C  0.24383312  0.33529013  0.74084573    -0.11800
C3069       C  0.24063612  0.32493268  0.74947051     0.01500
C3070       C  0.24291301  0.32661444  0.76305707    -0.24000
H3071       H  0.26828550  0.39135822  0.75587028     0.09500
H3072       H  0.25941282  0.37186341  0.74609450     0.13000
H3073       H  0.26603921  0.37388115  0.79460034     0.11800
H3074       H  0.25761790  0.35180672  0.79731247     0.13000
H3075       H  0.24817227  0.33169068  0.78828606     0.12000
H3076       H  0.25137434  0.35450385  0.73830113     0.09100
H3077       H  0.24201857  0.33435920  0.73033243     0.12300
H3078       H  0.24063504  0.31863208  0.76982287     0.14200
C3079       C  0.26281291  0.66450872  0.74819027    -0.01300
C3080       C  0.26196565  0.66452373  0.76203308    -0.09300
C3081       C  0.25648264  0.67519235  0.76885629    -0.18100
C3082       C  0.25147997  0.68627990  0.76202440     0.04200
C3083       C  0.25214172  0.68614087  0.74794912     0.18400
C3084       C  0.25787993  0.67538017  0.74119891    -0.19600
C3085       C  0.24711642  0.69677136  0.74070054    -0.20800
C3086       C  0.24167386  0.70765859  0.74711245    -0.19400
C3087       C  0.24115421  0.70824412  0.76095159     0.19800
C3088       C  0.24596187  0.69753059  0.76862968     0.01900
C3089       C  0.24516768  0.69864552  0.78257612    -0.14100
C3090       C  0.24007414  0.70999464  0.78859933    -0.11800
C3091       C  0.23552356  0.72063331  0.78101249     0.01500
C3092       C  0.23599588  0.71958556  0.76715362    -0.24000
H3093       H  0.26579227  0.65631441  0.76770194     0.09500
H3094       H  0.25633887  0.67444780  0.77948573     0.13000
H3095       H  0.25836505  0.67540039  0.73048000     0.11800
H3096       H  0.24747437  0.69670826  0.72998076     0.13000
H3097       H  0.23796117  0.71575537  0.74118986     0.12000
H3098       H  0.24847294  0.69096018  0.78913569     0.09100
H3099       H  0.23961207  0.71039630  0.79930056     0.12300
H3100       H  0.23263075  0.72777057  0.76114136     0.14200
C3101       C  0.28471510  0.55816696  0.74704032    -0.01300
C3102       C  0.28516437  0.54762714  0.73809952    -0.09300
C3103       C  0.28334948  0.53468199  0.74241564    -0.18100
C3104       C  0.28131572  0.53183765  0.75596319     0.04200
C3105       C  0.28090936  0.54261678  0.76499875     0.18400
C3106       C  0.28234428  0.55562791  0.76044208    -0.19600
C3107       C  0.27944376  0.54033256  0.77857260    -0.20800
C3108       C  0.27880211  0.52753946  0.78344475    -0.19400
C3109       C  0.27933830  0.51673370  0.77483495     0.19800
C3110       C  0.28017470  0.51869294  0.76093648     0.01900
C3111       C  0.28009583  0.50738197  0.75268982    -0.14100
C3112       C  0.28006406  0.49468200  0.75809013    -0.11800
C3113       C  0.28017966  0.49289074  0.77180479     0.01500
C3114       C  0.27941725  0.50394593  0.78009694    -0.24000
H3115       H  0.28689260  0.54940603  0.72766929     0.09500
H3116       H  0.28393857  0.52710759  0.73495241     0.13000
H3117       H  0.28213744  0.56376396  0.76741458     0.11800
H3118       H  0.27912933  0.54849071  0.78550637     0.13000
H3119       H  0.27803505  0.52608282  0.79404504     0.12000
H3120       H  0.28022590  0.50801509  0.74204741     0.09100
H3121       H  0.28052534  0.48625269  0.75151267     0.12300
H3122       H  0.27916011  0.50259672  0.79073921     0.14200
C3123       C  0.12129108  0.53649589  0.49993141    -0.01300
C3124       C  0.12172569  0.52493648  0.50752866    -0.09300
C3125       C  0.11018724  0.51939220  0.51276502    -0.18100
C3126       C  0.09774043  0.52539668  0.51078063     0.04200
C3127       C  0.09741790  0.53742627  0.50353843     0.18400
C3128       C  0.10906186  0.54269413  0.49801692    -0.19600
C3129       C  0.08547530  0.54416695  0.50189345    -0.20800
C3130       C  0.07383156  0.53925074  0.50729377    -0.19400
C3131       C  0.07372376  0.52725582  0.51416379     0.19800
C3132       C  0.08563609  0.52001078  0.51580785     0.01900
C3133       C  0.08484039  0.50761919  0.52223821    -0.14100
C3134       C  0.07279429  0.50276713  0.52698257    -0.11800
C3135       C  0.06120159  0.51015315  0.52572554     0.01500
C3136       C  0.06173839  0.52241325  0.51932842    -0.24000
H3137       H  0.13102732  0.51997384  0.50921877     0.09500
H3138       H  0.11134072  0.51047656  0.51845607     0.13000
H3139       H  0.10862662  0.55178382  0.49238354     0.11800
H3140       H  0.08515167  0.55338958  0.49647917     0.13000
H3141       H  0.06479870  0.54480141  0.50593563     0.12000
H3142       H  0.09333069  0.50136544  0.52358118     0.09100
H3143       H  0.07255495  0.49325654  0.53186607     0.12300
H3144       H  0.05274766  0.52810261  0.51822523     0.14200
C3145       C  0.40332109  0.53667071  0.53266152    -0.01300
C3146       C  0.41444249  0.53386437  0.54038093    -0.09300
C3147       C  0.42615972  0.52930902  0.53456571    -0.18100
C3148       C  0.42720693  0.52747018  0.52071094     0.04200
C3149       C  0.41600738  0.53063763  0.51290305     0.18400
C3150       C  0.40425823  0.53505313  0.51889492    -0.19600
C3151       C  0.41657140  0.52939931  0.49911814    -0.20800
C3152       C  0.42798641  0.52498135  0.49287766    -0.19400
C3153       C  0.43909835  0.52148279  0.50025588     0.19800
C3154       C  0.43889024  0.52260522  0.51429257     0.01900
C3155       C  0.45031102  0.51860071  0.52123901    -0.14100
C3156       C  0.46136245  0.51361981  0.51453069    -0.11800
C3157       C  0.46153095  0.51259966  0.50068783     0.01500
C3158       C  0.45035739  0.51667182  0.49363924    -0.24000
H3159       H  0.41407622  0.53502888  0.55102265     0.09500
H3160       H  0.43424399  0.52735865  0.54117228     0.13000
H3161       H  0.39586954  0.53740891  0.51272937     0.11800
H3162       H  0.40810292  0.53187261  0.49309680     0.13000
H3163       H  0.42806572  0.52414447  0.48218475     0.12000
H3164       H  0.45094221  0.51903339  0.53187290     0.09100
H3165       H  0.46988737  0.51062622  0.52021441     0.12300
H3166       H  0.45029078  0.51575707  0.48294854     0.14200
C3167       C  0.35102779  0.59586536  0.60959001    -0.01300
C3168       C  0.35864340  0.59254822  0.62061655    -0.09300
C3169       C  0.35606662  0.59827724  0.63295526    -0.18100
C3170       C  0.34566794  0.60748157  0.63463270     0.04200
C3171       C  0.33887868  0.61175925  0.62313874     0.18400
C3172       C  0.34162500  0.60597350  0.61080206    -0.19600
C3173       C  0.32887854  0.62125053  0.62413241    -0.20800
C3174       C  0.32475264  0.62585046  0.63643876    -0.19400
C3175       C  0.33041293  0.62093826  0.64804531     0.19800
C3176       C  0.34123488  0.61199330  0.64730627     0.01900
C3177       C  0.34650521  0.60722626  0.65930876    -0.14100
C3178       C  0.34054494  0.61024732  0.67139445    -0.11800
C3179       C  0.32935274  0.61834396  0.67200728     0.01500
C3180       C  0.32475003  0.62422230  0.66036220    -0.24000
H3181       H  0.36614690  0.58497238  0.61989418     0.09500
H3182       H  0.36208845  0.59495734  0.64106385     0.13000
H3183       H  0.33598641  0.60895828  0.60221586     0.11800
H3184       H  0.32385106  0.62475446  0.61536261     0.13000
H3185       H  0.31663728  0.63280509  0.63689875     0.12000
H3186       H  0.35482380  0.60061476  0.65966552     0.09100
H3187       H  0.34446922  0.60582754  0.68030840     0.12300
H3188       H  0.31610590  0.63051537  0.66075021     0.14200
C3189       C  0.29484863  0.55578356  0.52880127    -0.01300
C3190       C  0.28398317  0.55518721  0.53737230    -0.09300
C3191       C  0.27116651  0.55440796  0.53249522    -0.18100
C3192       C  0.26870715  0.55441630  0.51874414     0.04200
C3193       C  0.27976827  0.55500589  0.51004258     0.18400
C3194       C  0.29268924  0.55546486  0.51511664    -0.19600
C3195       C  0.27784235  0.55541067  0.49634188    -0.20800
C3196       C  0.26518072  0.55549025  0.49109226    -0.19400
C3197       C  0.25410397  0.55495096  0.49939024     0.19800
C3198       C  0.25568593  0.55414580  0.51332923     0.01900
C3199       C  0.24414642  0.55318824  0.52120985    -0.14100
C3200       C  0.23160477  0.55337789  0.51550219    -0.11800
C3201       C  0.23009244  0.55464256  0.50180167     0.01500
C3202       C  0.24142809  0.55530242  0.49380890    -0.24000
H3203       H  0.28538593  0.55528809  0.54798976     0.09500
H3204       H  0.26339126  0.55406690  0.53977106     0.13000
H3205       H  0.30103910  0.55604907  0.50841653     0.11800
H3206       H  0.28618929  0.55587789  0.48963552     0.13000
H3207       H  0.26404356  0.55601511  0.48044536     0.12000
H3208       H  0.24446005  0.55228092  0.53182330     0.09100
H3209       H  0.22304036  0.55283316  0.52190132     0.12300
H3210       H  0.24040970  0.55602582  0.48316280     0.14200
C3211       C  0.24559399  0.38988085  0.24968440    -0.01300
C3212       C  0.24679178  0.38906760  0.26347304    -0.09300
C3213       C  0.25227330  0.37790637  0.26947162    -0.18100
C3214       C  0.25692456  0.36715505  0.26181196     0.04200
C3215       C  0.25564942  0.36802425  0.24782617     0.18400
C3216       C  0.24995647  0.37924015  0.24194709    -0.19600
C3217       C  0.26014393  0.35772669  0.23974803    -0.20800
C3218       C  0.26582962  0.34651411  0.24523566    -0.19400
C3219       C  0.26718615  0.34528996  0.25895429     0.19800
C3220       C  0.26279128  0.35559571  0.26746879     0.01900
C3221       C  0.26447075  0.35384239  0.28124820    -0.14100
C3222       C  0.27008512  0.34230585  0.28631547    -0.11800
C3223       C  0.27426470  0.33210504  0.27789787     0.01500
C3224       C  0.27285354  0.33374602  0.26419693    -0.24000
H3225       H  0.24339595  0.39708518  0.26970367     0.09500
H3226       H  0.25277910  0.37803106  0.28011610     0.13000
H3227       H  0.24921564  0.37979466  0.23126688     0.11800
H3228       H  0.25924749  0.35834204  0.22908239     0.13000
H3229       H  0.26917461  0.33871856  0.23868465     0.12000
H3230       H  0.26153381  0.36118715  0.28838448     0.09100
H3231       H  0.27124341  0.34140379  0.29692732     0.12300
H3232       H  0.27592206  0.32588430  0.25758542     0.14200
C3233       C  0.24706181  0.67232267  0.27944969    -0.01300
C3234       C  0.25020470  0.68277371  0.28793714    -0.09300
C3235       C  0.25575960  0.69441767  0.28303135    -0.18100
C3236       C  0.25822783  0.69608648  0.26933728     0.04200
C3237       C  0.25479006  0.68554288  0.26073179     0.18400
C3238       C  0.24940314  0.67380600  0.26583653    -0.19600
C3239       C  0.25668683  0.68678514  0.24705949    -0.20800
C3240       C  0.26189789  0.69829912  0.24170849    -0.19400
C3241       C  0.26549722  0.70882581  0.24989671     0.19800
C3242       C  0.26385089  0.70784170  0.26384755     0.01900
C3243       C  0.26793522  0.71866440  0.27166249    -0.14100
C3244       C  0.27321248  0.73001258  0.26585921    -0.11800
C3245       C  0.27462117  0.73103739  0.25209367     0.01500
C3246       C  0.27076663  0.72033843  0.24418780    -0.24000
H3247       H  0.24856291  0.68188824  0.29849127     0.09500
H3248       H  0.25792759  0.70195526  0.29021347     0.13000
H3249       H  0.24684198  0.66587270  0.25913281     0.11800
H3250       H  0.25404835  0.67881056  0.24043469     0.13000
H3251       H  0.26315498  0.69895866  0.23107358     0.12000
H3252       H  0.26720992  0.71867081  0.28229830     0.09100
H3253       H  0.27604310  0.73813173  0.27220785     0.12300
H3254       H  0.27205077  0.72089058  0.23354670     0.14200
C3255       C  0.19019627  0.61525144  0.35539922    -0.01300
C3256       C  0.19455507  0.62234290  0.36642792    -0.09300
C3257       C  0.19039708  0.61890353  0.37918420    -0.18100
C3258       C  0.18168349  0.60819414  0.38130261     0.04200
C3259       C  0.17638358  0.60182669  0.36998893     0.18400
C3260       C  0.18070571  0.60534484  0.35723039    -0.19600
C3261       C  0.16721819  0.59161270  0.37149642    -0.20800
C3262       C  0.16372531  0.58708053  0.38402783    -0.19400
C3263       C  0.16951584  0.59245937  0.39536201     0.19800
C3264       C  0.17844648  0.60322930  0.39417385     0.01900
C3265       C  0.18433749  0.60804319  0.40586306    -0.14100
C3266       C  0.18205378  0.60195842  0.41803963    -0.11800
C3267       C  0.17358446  0.59110946  0.41912061     0.01500
C3268       C  0.16695140  0.58670311  0.40781503    -0.24000
H3269       H  0.20173454  0.63015521  0.36528136     0.09500
H3270       H  0.19440874  0.62462736  0.38719623     0.13000
H3271       H  0.17698694  0.60003729  0.34871229     0.11800
H3272       H  0.16296394  0.58686527  0.36290539     0.13000
H3273       H  0.15684422  0.57894974  0.38482637     0.12000
H3274       H  0.19119612  0.61614402  0.40586150     0.09100
H3275       H  0.18716325  0.60564288  0.42667452     0.12300
H3276       H  0.16044667  0.57825713  0.40856326     0.14200
C3277       C  0.23913440  0.49893775  0.24656945    -0.01300
C3278       C  0.24194344  0.50981035  0.23847941    -0.09300
C3279       C  0.24210800  0.52259331  0.24364866    -0.18100
C3280       C  0.23925091  0.52495697  0.25714778     0.04200
C3281       C  0.23652149  0.51385189  0.26533024     0.18400
C3282       C  0.23667931  0.50102444  0.26004706    -0.19600
C3283       C  0.23330354  0.51561866  0.27868105    -0.20800
C3284       C  0.23245515  0.52820001  0.28405854    -0.19400
C3285       C  0.23495520  0.53933159  0.27626279     0.19800
C3286       C  0.23864610  0.53791291  0.26276097     0.01900
C3287       C  0.24137965  0.54954425  0.25548618    -0.14100
C3288       C  0.23994432  0.56202980  0.26125230    -0.11800
C3289       C  0.23573184  0.56334512  0.27440341     0.01500
C3290       C  0.23355278  0.55190542  0.28189665    -0.24000
H3291       H  0.24397121  0.50844795  0.22803965     0.09500
H3292       H  0.24422560  0.53042788  0.23676373     0.13000
H3293       H  0.23433464  0.49269840  0.26635482     0.11800
H3294       H  0.23119759  0.50721258  0.28496501     0.13000
H3295       H  0.22970491  0.52923484  0.29438213     0.12000
H3296       H  0.24452702  0.54933307  0.24529384     0.09100
H3297       H  0.24179602  0.57067965  0.25525159     0.12300
H3298       H  0.23063816  0.55273618  0.29218592     0.14200
C3299       C  0.39343470  0.51886785  0.99926879    -0.01300
C3300       C  0.40478558  0.52102260  0.99160487    -0.09300
C3301       C  0.41611239  0.52661842  0.99710666    -0.18100
C3302       C  0.41656697  0.53026639  0.01061185     0.04200
C3303       C  0.40508706  0.52803784  0.01840326     0.18400
C3304       C  0.39370482  0.52248174  0.01270434    -0.19600
C3305       C  0.40505866  0.53127379  0.03188217    -0.20800
C3306       C  0.41623237  0.53652230  0.03784781    -0.19400
C3307       C  0.42770876  0.53882871  0.03047559     0.19800
C3308       C  0.42799980  0.53591636  0.01669833     0.01900
C3309       C  0.43972491  0.53881174  0.00964531    -0.14100
C3310       C  0.45068288  0.54419922  0.01602378    -0.11800
C3311       C  0.45045634  0.54675299  0.02964353     0.01500
C3312       C  0.43891082  0.54404162  0.03681278    -0.24000
H3313       H  0.40496586  0.51845400  0.98121612     0.09500
H3314       H  0.42439051  0.52786753  0.99052614     0.13000
H3315       H  0.38511514  0.52080869  0.01886258     0.11800
H3316       H  0.39635140  0.52962572  0.03789829     0.13000
H3317       H  0.41588911  0.53879883  0.04832368     0.12000
H3318       H  0.44073517  0.53708292  0.99917418     0.09100
H3319       H  0.45949876  0.54620328  0.01029178     0.12300
H3320       H  0.43860889  0.54615504  0.04732995     0.14200
C3321       C  0.34064885  0.46218202  0.91957687    -0.01300
C3322       C  0.34525319  0.46923768  0.90858435    -0.09300
C3323       C  0.34185976  0.46543775  0.89571960    -0.18100
C3324       C  0.33370275  0.45434664  0.89338402     0.04200
C3325       C  0.32921543  0.44710694  0.90455108     0.18400
C3326       C  0.33275122  0.45101156  0.91741475    -0.19600
C3327       C  0.32102505  0.43612683  0.90284865    -0.20800
C3328       C  0.31689540  0.43234997  0.89029147    -0.19400
C3329       C  0.32093122  0.43938131  0.87907735     0.19800
C3330       C  0.32959444  0.45033925  0.88044005     0.01900
C3331       C  0.33360606  0.45690923  0.86878783    -0.14100
C3332       C  0.32868544  0.45322869  0.85645428    -0.11800
C3333       C  0.31963797  0.44285223  0.85518563     0.01500
C3334       C  0.31609956  0.43571155  0.86653106    -0.24000
H3335       H  0.35125879  0.47795220  0.90990376     0.09500
H3336       H  0.34560705  0.47152973  0.88783243     0.13000
H3337       H  0.32922204  0.44533157  0.92578080     0.11800
H3338       H  0.31760434  0.43053174  0.91132526     0.13000
H3339       H  0.31037152  0.42394687  0.88936241     0.12000
H3340       H  0.34042708  0.46504009  0.86886684     0.09100
H3341       H  0.33192093  0.45870694  0.84784687     0.12300
H3342       H  0.30917082  0.42762993  0.86569647     0.14200
C3343       C  0.05791990  0.53948295  0.99285292    -0.01300
C3344       C  0.06811890  0.53469426  0.98473352    -0.09300
C3345       C  0.07987446  0.52989580  0.99011913    -0.18100
C3346       C  0.08197729  0.52975728  0.00395273     0.04200
C3347       C  0.07173733  0.53475907  0.01219001     0.18400
C3348       C  0.05989618  0.53947092  0.00663664    -0.19600
C3349       C  0.07332837  0.53493822  0.02595418    -0.20800
C3350       C  0.08472728  0.52995471  0.03175347    -0.19400
C3351       C  0.09487623  0.52465881  0.02395895     0.19800
C3352       C  0.09376102  0.52469363  0.00992563     0.01900
C3353       C  0.10443390  0.51950399  0.00252188    -0.14100
C3354       C  0.11551019  0.51418469  0.00877473    -0.11800
C3355       C  0.11639884  0.51373560  0.02261696     0.01500
C3356       C  0.10606302  0.51915842  0.03013821    -0.24000
H3357       H  0.06713915  0.53482204  0.97407258     0.09500
H3358       H  0.08713396  0.52637032  0.98315999     0.13000
H3359       H  0.05211512  0.54293872  0.01313999     0.11800
H3360       H  0.06562588  0.53883874  0.03230970     0.13000
H3361       H  0.08554149  0.53010730  0.04244272     0.12000
H3362       H  0.10448734  0.51929046  0.99186625     0.09100
H3363       H  0.12328196  0.51008427  0.00266108     0.12300
H3364       H  0.10670019  0.51908564  0.04084112     0.14200
C3365       C  0.19741703  0.44411859  0.16593906    -0.01300
C3366       C  0.19837584  0.43432136  0.15622075    -0.09300
C3367       C  0.19227337  0.43592806  0.14391417    -0.18100
C3368       C  0.18486321  0.44742229  0.14096682     0.04200
C3369       C  0.18340549  0.45702423  0.15111877     0.18400
C3370       C  0.18971376  0.45534075  0.16336954    -0.19600
C3371       C  0.17585273  0.46838510  0.14891793    -0.20800
C3372       C  0.17002342  0.47065084  0.13668691    -0.19400
C3373       C  0.17173087  0.46170293  0.12626615     0.19800
C3374       C  0.17907522  0.44988852  0.12828381     0.01900
C3375       C  0.18065083  0.44128643  0.11738416    -0.14100
C3376       C  0.17568495  0.44455621  0.10493459    -0.11800
C3377       C  0.16882798  0.45639977  0.10285729     0.01500
C3378       C  0.16653874  0.46474511  0.11369933    -0.24000
H3379       H  0.20422056  0.42554883  0.15797340     0.09500
H3380       H  0.19364303  0.42804911  0.13688298     0.13000
H3381       H  0.18867043  0.46287135  0.17092278     0.11800
H3382       H  0.17458600  0.47567565  0.15667094     0.13000
H3383       H  0.16440289  0.47963959  0.13527410     0.12000
H3384       H  0.18599046  0.43211803  0.11805222     0.09100
H3385       H  0.17743516  0.43781263  0.09680024     0.12300
H3386       H  0.16131407  0.47396058  0.11222653     0.14200
C3387       C  0.22055016  0.47989290  0.02006827    -0.01300
C3388       C  0.22651292  0.49232266  0.01953752    -0.09300
C3389       C  0.24000096  0.49353974  0.01691570    -0.18100
C3390       C  0.24791777  0.48228796  0.01444853     0.04200
C3391       C  0.24164979  0.46973491  0.01450970     0.18400
C3392       C  0.22817691  0.46864260  0.01756115    -0.19600
C3393       C  0.24883744  0.45833981  0.01144785    -0.20800
C3394       C  0.26212543  0.45912650  0.00819644    -0.19400
C3395       C  0.26864515  0.47128367  0.00827173     0.19800
C3396       C  0.26174286  0.48302186  0.01168256     0.01900
C3397       C  0.26901799  0.49492785  0.01219371    -0.14100
C3398       C  0.28242974  0.49521469  0.00888643    -0.11800
C3399       C  0.28898085  0.48370999  0.00487929     0.01500
C3400       C  0.28204522  0.47175383  0.00483245    -0.24000
H3401       H  0.22078026  0.50113890  0.02149461     0.09500
H3402       H  0.24391201  0.50341721  0.01672847     0.13000
H3403       H  0.22354707  0.45900676  0.01781674     0.11800
H3404       H  0.24410470  0.44876006  0.01139509     0.13000
H3405       H  0.26736120  0.45013839  0.00565962     0.12000
H3406       H  0.26461909  0.50417270  0.01511110     0.09100
H3407       H  0.28757516  0.50456191  0.00908626     0.12300
H3408       H  0.28708920  0.46272421  0.00206344     0.14200
loop_ 
_geom_bond_atom_site_label_1 
_geom_bond_atom_site_label_2 
_geom_bond_distance 
_geom_bond_site_symmetry_2 
_ccdc_geom_bond_type 
N1            N2   1.322       .  A
N1            C5   1.353       .  A
N1           Cu9   2.107       .  S
N2            C3   1.341       .  A
N2           Cu8   2.064       .  S
C3            C4   1.382       .  A
C3            H6   1.082       .  S
C4            C5   1.394       .  A
C4         C3377   1.489       .  S
C5            H7   1.082       .  S
Cu8          N11   2.064       .  S
Cu9          N19   2.108       .  S
Cu10         N12   2.080       .  S
Cu10         N18   2.082       .  S
N11          N12   1.320       .  A
N11          C15   1.344       .  A
N12          C13   1.347       .  A
C13          C14   1.387       .  A
C13          H16   1.082       .  S
C14          C15   1.383       .  A
C14        C3387   1.478       .  S
C15          H17   1.082       .  S
N18          N19   1.324       .  A
N18          C22   1.345       .  A
N19          C20   1.351       .  A
C20          C21   1.392       .  A
C20          H23   1.082       .  S
C21          C22   1.386       .  A
C21        C3355   1.492       .  S
C22          H24   1.082       .  S
N25          N26   1.320       .  A
N25          C29   1.351       .  A
N25         Cu33   2.099       .  S
N26          C27   1.342       .  A
N26         Cu32   2.057       .  S
C27          C28   1.384       .  A
C27          H30   1.081       .  S
C28          C29   1.395       .  A
C28        C3321   1.490       .  S
C29          H31   1.081       .  S
Cu32         N35   2.057       .  S
Cu33         N43   2.101       .  S
Cu34         N36   2.090       .  S
Cu34         N42   2.091       .  S
N35          N36   1.320       .  A
N35          C39   1.340       .  A
N36          C37   1.350   1_556  A
C37          C38   1.392       .  A
C37          H40   1.082       .  S
C38          C39   1.382   1_554  A
C38        C3399   1.483       .  S
C39          H41   1.082       .  S
N42          N43   1.324       .  A
N42          C46   1.348       .  A
N43          C44   1.348       .  A
C44          C45   1.391       .  A
C44          H47   1.081       .  S
C45          C46   1.389       .  A
C45        C3299   1.496       .  S
C46          H48   1.081   1_556  S
N49          N50   1.321       .  A
N49          C53   1.351       .  A
N49         Cu57   2.097       .  S
N50          C51   1.342       .  A
N50         Cu56   2.061       .  S
C51          C52   1.383       .  A
C51          H54   1.082       .  S
C52          C53   1.392       .  A
C52        C3255   1.485       .  S
C53          H55   1.082       .  S
Cu56         N59   2.061       .  S
Cu57         N67   2.098       .  S
Cu58         N60   2.082       .  S
Cu58         N66   2.084       .  S
N59          N60   1.320       .  A
N59          C63   1.341       .  A
N60          C61   1.349       .  A
C61          C62   1.391       .  A
C61          H64   1.082       .  S
C62          C63   1.385       .  A
C62        C3289   1.485       .  S
C63          H65   1.081       .  S
N66          N67   1.325       .  A
N66          C70   1.346       .  A
N67          C68   1.348       .  A
C68          C69   1.389       .  A
C68          H71   1.082       .  S
C69          C70   1.385       .  A
C69        C3233   1.487       .  S
C70          H72   1.082       .  S
N73          N74   1.321       .  A
N73          C77   1.351       .  A
N73         Cu81   2.098       .  S
N74          C75   1.342       .  A
N74         Cu80   2.059       .  S
C75          C76   1.382       .  A
C75          H78   1.082       .  S
C76          C77   1.393       .  A
C76        C3365   1.486       .  S
C77          H79   1.082       .  S
Cu80         N83   2.058       .  S
Cu81         N91   2.099       .  S
Cu82         N84   2.083       .  S
Cu82         N90   2.084       .  S
N83          N84   1.320       .  A
N83          C87   1.341       .  A
N84          C85   1.348       .  A
C85          C86   1.390       .  A
C85          H88   1.082       .  S
C86          C87   1.383       .  A
C86        C3277   1.481       .  S
C87          H89   1.082       .  S
N90          N91   1.325       .  A
N90          C94   1.346       .  A
N91          C92   1.348       .  A
C92          C93   1.389       .  A
C92          H95   1.082       .  S
C93          C94   1.385       .  A
C93        C3211   1.487       .  S
C94          H96   1.082       .  S
N97          N98   1.320       .  A
N97         C101   1.350       .  A
N97        Cu105   2.092       .  S
N98          C99   1.340       .  A
N98        Cu104   2.057       .  S
C99         C100   1.382       .  A
C99         H102   1.082       .  S
C100        C101   1.392       .  A
C100       C3167   1.483       .  S
C101        H103   1.082       .  S
Cu104       N107   2.057       .  S
Cu105       N115   2.094       .  S
Cu106       N108   2.093       .  S
Cu106       N114   2.095       .  S
N107        N108   1.320       .  A
N107        C111   1.340       .  A
N108        C109   1.351       .  A
C109        C110   1.391       .  A
C109        H112   1.082       .  S
C110        C111   1.382       .  A
C110       C3189   1.483       .  S
C111        H113   1.082       .  S
N114        N115   1.325       .  A
N114        C118   1.347       .  A
N115        C116   1.348       .  A
C116        C117   1.389       .  A
C116        H119   1.082       .  S
C117        C118   1.389       .  A
C117       C3145   1.492       .  S
C118        H120   1.081       .  S
N121        N122   1.321       .  A
N121        C125   1.352       .  A
N121       Cu129   2.098       .  S
N122        C123   1.341       .  A
N122       Cu128   2.061       .  S
C123        C124   1.382       .  A
C123        H126   1.082       .  S
C124        C125   1.391       .  A
C124       C3267   1.483       .  S
C125        H127   1.082       .  S
Cu128       N131   2.061       .  S
Cu129       N139   2.100       .  S
Cu130       N132   2.099       .  S
Cu130       N138   2.101       .  S
N131        N132   1.321       .  A
N131        C135   1.343       .  A
N132        C133   1.350       .  A
C133        C134   1.393       .  A
C133        H136   1.082       .  S
C134        C135   1.383       .  A
C134       C3201   1.487       .  S
C135        H137   1.082       .  S
N138        N139   1.326       .  A
N138        C142   1.349       .  A
N139        C140   1.349       .  A
C140        C141   1.387       .  A
C140        H143   1.082       .  S
C141        C142   1.388       .  A
C141       C3123   1.491       .  S
C142        H144   1.082       .  S
N145        N146   1.322       .  A
N145        C149   1.352       .  A
N145       Cu153   2.099       .  S
N146        C147   1.339       .  A
N146       Cu152   2.058       .  S
C147        C148   1.381       .  A
C147        H150   1.082       .  S
C148        C149   1.392       .  A
C148       C3179   1.482       .  S
C149        H151   1.082       .  S
Cu152       N155   2.058       .  S
Cu153       N163   2.100       .  S
Cu154       N156   2.072       .  S
Cu154       N162   2.074       .  S
N155        N156   1.319       .  A
N155        C159   1.342       .  A
N156        C157   1.346       .  A
C157        C158   1.386       .  A
C157        H160   1.082       .  S
C158        C159   1.383       .  A
C158       C3101   1.475       .  S
C159        H161   1.082       .  S
N162        N163   1.325       .  A
N162        C166   1.342       .  A
N163        C164   1.351       .  A
C164        C165   1.390       .  A
C164        H167   1.082       .  S
C165        C166   1.383       .  A
C165       C3079   1.485       .  S
C166        H168   1.082       .  S
N169        N170   1.320       .  A
N169        C173   1.353       .  A
N169       Cu177   2.105       .  S
N170        C171   1.338       .  A
N170       Cu176   2.049       .  S
C171        C172   1.381       .  A
C171        H174   1.082       .  S
C172        C173   1.396       .  A
C172       C3333   1.488       .  S
C173        H175   1.082       .  S
Cu176       N179   2.049       .  S
Cu177       N187   2.107       .  S
Cu178       N180   2.077       .  S
Cu178       N186   2.080       .  S
N179        N180   1.319       .  A
N179        C183   1.339       .  A
N180        C181   1.349       .  A
C181        C182   1.389       .  A
C181        H184   1.082       .  S
C182        C183   1.381       .  A
C182       C3113   1.476       .  S
C183        H185   1.082       .  S
N186        N187   1.326       .  A
N186        C190   1.344       .  A
N187        C188   1.349       .  A
C188        C189   1.391       .  A
C188        H191   1.081       .  S
C189        C190   1.385       .  A
C189       C3057   1.490       .  S
C190        H192   1.081       .  S
N193        N194   1.321       .  A
N193        C197   1.356       .  A
N193       Cu201   2.110       .  S
N194        C195   1.338       .  A
N194       Cu200   2.049       .  S
C195        C196   1.378       .  A
C195        H198   1.082       .  S
C196        C197   1.396       .  A
C196       C3013   1.485       .  S
C197        H199   1.082       .  S
Cu200       N203   2.048       .  S
Cu201       N211   2.112       .  S
Cu202       N204   2.094       .  S
Cu202       N210   2.096       .  S
N203        N204   1.319       .  A
N203        C207   1.341       .  A
N204        C205   1.350       .  A
C205        C206   1.394       .  A
C205        H208   1.082       .  S
C206        C207   1.382       .  A
C206       C3035   1.484       .  S
C207        H209   1.082       .  S
N210        N211   1.327       .  A
N210        C214   1.347       .  A
N211        C212   1.351       .  A
C212        C213   1.392       .  A
C212        H215   1.081       .  S
C213        C214   1.388       .  A
C213       C2991   1.496       .  S
C214        H216   1.081       .  S
N217        N218   1.321       .  A
N217        C221   1.352       .  A
N217       Cu225   2.106       .  S
N218        C219   1.342       .  A
N218       Cu224   2.057       .  S
C219        C220   1.381       .  A
C219        H222   1.082       .  S
C220        C221   1.394       .  A
C220       C2969   1.486       .  S
C221        H223   1.082       .  S
Cu224       N227   2.057       .  S
Cu225       N235   2.108       .  S
Cu226       N228   2.091       .  S
Cu226       N234   2.094       .  S
N227        N228   1.319       .  A
N227        C231   1.340       .  A
N228        C229   1.352       .  A
C229        C230   1.393       .  A
C229        H232   1.082       .  S
C230        C231   1.384       .  A
C230       C3047   1.487       .  S
C231        H233   1.081       .  S
N234        N235   1.326       .  A
N234        C238   1.346       .  A
N235        C236   1.351       .  A
C236        C237   1.391       .  A
C236        H239   1.082       .  S
C237        C238   1.387       .  A
C237       C2947   1.494       .  S
C238        H240   1.081       .  S
N241        N242   1.321       .  A
N241        C245   1.353       .  A
N241       Cu249   2.116       .  S
N242        C243   1.342       .  A
N242       Cu248   2.054       .  S
C243        C244   1.381       .  A
C243        H246   1.082       .  S
C244        C245   1.396       .  A
C244       C3025   1.488       .  S
C245        H247   1.082       .  S
Cu248       N251   2.054       .  S
Cu249       N259   2.118       .  S
Cu250       N252   2.090       .  S
Cu250       N258   2.092       .  S
N251        N252   1.319       .  A
N251        C255   1.339       .  A
N252        C253   1.352       .  A
C253        C254   1.393       .  A
C253        H256   1.082       .  S
C254        C255   1.382       .  A
C254       C2925   1.484       .  S
C255        H257   1.082       .  S
N258        N259   1.327       .  A
N258        C262   1.346       .  A
N259        C260   1.353       .  A
C260        C261   1.392       .  A
C260        H263   1.082       .  S
C261        C262   1.385       .  A
C261       C2915   1.494       .  S
C262        H264   1.082       .  S
N265        N266   1.320       .  A
N265        C269   1.348       .  A
N265       Cu273   2.082       .  S
N266        C267   1.341       .  A
N266       Cu272   2.057       .  S
C267        C268   1.383       .  A
C267        H270   1.082       .  S
C268        C269   1.389       .  A
C268       C2881   1.480       .  S
C269        H271   1.082       .  S
Cu272       N275   2.057       .  S
Cu273       N283   2.083       .  S
Cu274       N276   2.102       .  S
Cu274       N282   2.104       .  S
N275        N276   1.321       .  A
N275        C279   1.342       .  A
N276        C277   1.351       .  A
C277        C278   1.393       .  A
C277        H280   1.082       .  S
C278        C279   1.381       .  A
C278       C2937   1.484       .  S
C279        H281   1.082       .  S
N282        N283   1.325       .  A
N282        C286   1.348       .  A
N283        C284   1.346       .  A
C284        C285   1.386       .  A
C284        H287   1.081       .  S
C285        C286   1.391       .  A
C285       C2871   1.492       .  S
C286        H288   1.081       .  S
N289        N290   1.321       .  A
N289        C293   1.352       .  A
N289       Cu297   2.097       .  S
N290        C291   1.340       .  A
N290       Cu296   2.064       .  S
C291        C292   1.383       .  A
C291        H294   1.082       .  S
C292        C293   1.393       .  A
C292       C2827   1.487       .  S
C293        H295   1.082       .  S
Cu296       N299   2.064       .  S
Cu297       N307   2.098       .  S
Cu298       N300   2.088       .  S
Cu298       N306   2.089       .  S
N299        N300   1.320       .  A
N299        C303   1.343       .  A
N300        C301   1.349       .  A
C301        C302   1.391       .  A
C301        H304   1.082       .  S
C302        C303   1.385       .  A
C302       C2849   1.486       .  S
C303        H305   1.082       .  S
N306        N307   1.325       .  A
N306        C310   1.346       .  A
N307        C308   1.349       .  A
C308        C309   1.388       .  A
C308        H311   1.082       .  S
C309        C310   1.386       .  A
C309       C2793   1.488       .  S
C310        H312   1.082       .  S
N313        N314   1.320       .  A
N313        C317   1.353       .  A
N313       Cu321   2.105       .  S
N314        C315   1.340       .  A
N314       Cu320   2.056       .  S
C315        C316   1.383       .  A
C315        H318   1.082       .  S
C316        C317   1.396       .  A
C316       C2981   1.490       .  S
C317        H319   1.082       .  S
Cu320       N323   2.057       .  S
Cu321       N331   2.108       .  S
Cu322       N324   2.102       .  S
Cu322       N330   2.104       .  S
N323        N324   1.320       .  A
N323        C327   1.341       .  A
N324        C325   1.353       .  A
C325        C326   1.393       .  A
C325        H328   1.082       .  S
C326        C327   1.382       .  A
C326       C2837   1.485       .  S
C327        H329   1.082       .  S
N330        N331   1.327       .  A
N330        C334   1.348       .  A
N331        C332   1.351       .  A
C332        C333   1.391       .  A
C332        H335   1.082       .  S
C333        C334   1.390       .  A
C333       C2783   1.497       .  S
C334        H336   1.081       .  S
N337        N338   1.322       .  A
N337        C341   1.352       .  A
N337       Cu345   2.105       .  S
N338        C339   1.341       .  A
N338       Cu344   2.058       .  S
C339        C340   1.381       .  A
C339        H342   1.082       .  S
C340        C341   1.394       .  A
C340       C2815   1.486       .  S
C341        H343   1.082       .  S
Cu344       N347   2.058       .  S
Cu345       N355   2.106       .  S
Cu346       N348   2.089       .  S
Cu346       N354   2.092       .  S
N347        N348   1.320       .  A
N347        C351   1.341       .  A
N348        C349   1.351       .  A
C349        C350   1.390       .  A
C349        H352   1.082       .  S
C350        C351   1.382       .  A
C350       C2749   1.481       .  S
C351        H353   1.082       .  S
N354        N355   1.325       .  A
N354        C358   1.346       .  A
N355        C356   1.352       .  A
C356        C357   1.391       .  A
C356        H359   1.082       .  S
C357        C358   1.387       .  A
C357       C2727   1.493       .  S
C358        H360   1.082       .  S
N361        N362   1.320       .  A
N361        C365   1.348       .  A
N361       Cu369   2.081       .  S
N362        C363   1.342       .  A
N362       Cu368   2.065       .  S
C363        C364   1.384       .  A
C363        H366   1.082       .  S
C364        C365   1.390       .  A
C364       C2893   1.483       .  S
C365        H367   1.082       .  S
Cu368       N371   2.066   1_565  S
Cu369       N379   2.082       .  S
Cu370       N372   2.083       .  S
Cu370       N378   2.084       .  S
N371        N372   1.321       .  A
N371        C375   1.341       .  A
N372        C373   1.349       .  A
C373        C374   1.388       .  A
C373        H376   1.082       .  S
C374        C375   1.382       .  A
C374       C2761   1.479       .  S
C375        H377   1.082       .  S
N378        N379   1.323   1_545  A
N378        C382   1.346       .  A
N379        C380   1.345       .  A
C380        C381   1.388   1_565  A
C380        H383   1.081       .  S
C381        C382   1.388       .  A
C381       C2717   1.488       .  S
C382        H384   1.081       .  S
N385        N386   1.322       .  A
N385        C389   1.354       .  A
N385       Cu393   2.106       .  S
N386        C387   1.340       .  A
N386       Cu392   2.062       .  S
C387        C388   1.380       .  A
C387        H390   1.082       .  S
C388        C389   1.394       .  A
C388       C2661   1.484       .  S
C389        H391   1.082       .  S
Cu392       N395   2.062       .  S
Cu393       N403   2.108       .  S
Cu394       N396   2.087       .  S
Cu394       N402   2.089       .  S
N395        N396   1.320       .  A
N395        C399   1.342       .  A
N396        C397   1.350       .  A
C397        C398   1.391       .  A
C397        H400   1.082       .  S
C398        C399   1.384       .  A
C398       C2683   1.484       .  S
C399        H401   1.082       .  S
N402        N403   1.326       .  A
N402        C406   1.346       .  A
N403        C404   1.351       .  A
C404        C405   1.391       .  A
C404        H407   1.082       .  S
C405        C406   1.386       .  A
C405       C2639   1.493       .  S
C406        H408   1.081       .  S
N409        N410   1.321       .  A
N409        C413   1.354       .  A
N409       Cu417   2.117       .  S
N410        C411   1.340       .  A
N410       Cu416   2.052       .  S
C411        C412   1.382       .  A
C411        H414   1.081       .  S
C412        C413   1.398       .  A
C412       C2617   1.493       .  S
C413        H415   1.081       .  S
Cu416       N419   2.052       .  S
Cu417       N427   2.119       .  S
Cu418       N420   2.091       .  S
Cu418       N426   2.094       .  S
N419        N420   1.319       .  A
N419        C423   1.340       .  A
N420        C421   1.351       .  A
C421        C422   1.393       .  A
C421        H424   1.082       .  S
C422        C423   1.382       .  A
C422       C2695   1.483       .  S
C423        H425   1.082       .  S
N426        N427   1.327       .  A
N426        C430   1.345       .  A
N427        C428   1.354       .  A
C428        C429   1.393       .  A
C428        H431   1.082       .  S
C429        C430   1.386       .  A
C429       C2595   1.496       .  S
C430        H432   1.081       .  S
N433        N434   1.321       .  A
N433        C437   1.351       .  A
N433       Cu441   2.093       .  S
N434        C435   1.340       .  A
N434       Cu440   2.052       .  S
C435        C436   1.379       .  A
C435        H438   1.082       .  S
C436        C437   1.390       .  A
C436       C2551   1.476       .  S
C437        H439   1.082       .  S
Cu440       N443   2.051       .  S
Cu441       N451   2.096       .  S
Cu442       N444   2.092       .  S
Cu442       N450   2.094       .  S
N443        N444   1.321       .  A
N443        C447   1.341       .  A
N444        C445   1.350       .  A
C445        C446   1.390       .  A
C445        H448   1.082       .  S
C446        C447   1.379       .  A
C446       C2573   1.476       .  S
C447        H449   1.082       .  S
N450        N451   1.325       .  A
N450        C454   1.348       .  A
N451        C452   1.347       .  A
C452        C453   1.390       .  A
C452        H455   1.081       .  S
C453        C454   1.389       .  A
C453       C2541   1.494       .  S
C454        H456   1.081       .  S
N457        N458   1.321       .  A
N457        C461   1.354       .  A
N457       Cu465   2.109       .  S
N458        C459   1.340       .  A
N458       Cu464   2.053       .  S
C459        C460   1.379       .  A
C459        H462   1.082       .  S
C460        C461   1.394       .  A
C460       C2629   1.484       .  S
C461        H463   1.082       .  S
Cu464       N467   2.054       .  S
Cu465       N475   2.112       .  S
Cu466       N468   2.087       .  S
Cu466       N474   2.090       .  S
N467        N468   1.318       .  A
N467        C471   1.339       .  A
N468        C469   1.350       .  A
C469        C470   1.395       .  A
C469        H472   1.081   1_655  S
C470        C471   1.385       .  A
C470       C2585   1.490       .  S
C471        H473   1.080       .  S
N474        N475   1.326       .  A
N474        C478   1.347       .  A
N475        C476   1.350       .  A
C476        C477   1.391       .  A
C476        H479   1.082       .  S
C477        C478   1.386       .  A
C477       C2507   1.493       .  S
C478        H480   1.082   1_655  S
N481        N482   1.321       .  A
N481        C485   1.352       .  A
N481       Cu489   2.101       .  S
N482        C483   1.340       .  A
N482       Cu488   2.057       .  S
C483        C484   1.382       .  A
C483        H486   1.082       .  S
C484        C485   1.394       .  A
C484       C2463   1.487       .  S
C485        H487   1.082       .  S
Cu488       N491   2.056       .  S
Cu489       N499   2.103       .  S
Cu490       N492   2.092       .  S
Cu490       N498   2.095       .  S
N491        N492   1.320       .  A
N491        C495   1.342       .  A
N492        C493   1.350       .  A
C493        C494   1.391       .  A
C493        H496   1.082       .  S
C494        C495   1.381       .  A
C494       C2485   1.480       .  S
C495        H497   1.082       .  S
N498        N499   1.326       .  A
N498        C502   1.346       .  A
N499        C500   1.350       .  A
C500        C501   1.389       .  A
C500        H503   1.082       .  S
C501        C502   1.387       .  A
C501       C2453   1.490       .  S
C502        H504   1.082       .  S
N505        N506   1.321       .  A
N505        C509   1.353       .  A
N505       Cu513   2.110       .  S
N506        C507   1.341       .  A
N506       Cu512   2.058       .  S
C507        C508   1.384       .  A
C507        H510   1.081       .  S
C508        C509   1.396       .  A
C508       C2673   1.493       .  S
C509        H511   1.081       .  S
Cu512       N515   2.058       .  S
Cu513       N523   2.111       .  S
Cu514       N516   2.086       .  S
Cu514       N522   2.088       .  S
N515        N516   1.320       .  A
N515        C519   1.341       .  A
N516        C517   1.349       .  A
C517        C518   1.391       .  A
C517        H520   1.082       .  S
C518        C519   1.384       .  A
C518       C2497   1.484       .  S
C519        H521   1.082       .  S
N522        N523   1.325       .  A
N522        C526   1.348       .  A
N523        C524   1.350       .  A
C524        C525   1.393       .  A
C524        H527   1.081       .  S
C525        C526   1.388       .  A
C525       C2419   1.496       .  S
C526        H528   1.081       .  S
N529        N530   1.322       .  A
N529        C533   1.352       .  A
N529       Cu537   2.103       .  S
N530        C531   1.341       .  A
N530       Cu536   2.059       .  S
C531        C532   1.380       .  A
C531        H534   1.082       .  S
C532        C533   1.392       .  A
C532       C2475   1.481       .  S
C533        H535   1.082       .  S
Cu536       N539   2.060       .  S
Cu537       N547   2.104       .  S
Cu538       N540   2.083       .  S
Cu538       N546   2.085       .  S
N539        N540   1.320       .  A
N539        C543   1.341       .  A
N540        C541   1.349       .  A
C541        C542   1.389       .  A
C541        H544   1.082       .  S
C542        C543   1.383       .  A
C542       C2397   1.481       .  S
C543        H545   1.082       .  S
N546        N547   1.326       .  A
N546        C550   1.346       .  A
N547        C548   1.349       .  A
C548        C549   1.389       .  A
C548        H551   1.082       .  S
C549        C550   1.385       .  A
C549       C2387   1.488       .  S
C550        H552   1.082       .  S
N553        N554   1.320       .  A
N553        C557   1.350       .  A
N553       Cu561   2.086       .  S
N554        C555   1.339       .  A
N554       Cu560   2.055       .  S
C555        C556   1.381       .  A
C555        H558   1.082       .  S
C556        C557   1.391       .  A
C556       C2563   1.479       .  S
C557        H559   1.082       .  S
Cu560       N563   2.056       .  S
Cu561       N571   2.087       .  S
Cu562       N564   2.084       .  S
Cu562       N570   2.086       .  S
N563        N564   1.320       .  A
N563        C567   1.342       .  A
N564        C565   1.348       .  A
C565        C566   1.389       .  A
C565        H568   1.082       .  S
C566        C567   1.381       .  A
C566       C2409   1.478       .  S
C567        H569   1.082       .  S
N570        N571   1.325       .  A
N570        C574   1.346       .  A
N571        C572   1.346       .  A
C572        C573   1.386       .  A
C572        H575   1.082       .  S
C573        C574   1.386       .  A
C573       C2353   1.484       .  S
C574        H576   1.082       .  S
N577        N578   1.320       .  A
N577        C581   1.353       .  A
N577       Cu585   2.106       .  S
N578        C579   1.340       .  A
N578       Cu584   2.055       .  S
C579        C580   1.382       .  A
C579        H582   1.082       .  S
C580        C581   1.396       .  A
C580       C2309   1.490       .  S
C581        H583   1.082       .  S
Cu584       N587   2.055       .  S
Cu585       N595   2.108       .  S
Cu586       N588   2.087       .  S
Cu586       N594   2.090       .  S
N587        N588   1.320       .  A
N587        C591   1.339       .  A
N588        C589   1.352       .  A
C589        C590   1.389       .  A
C589        H592   1.082       .  S
C590        C591   1.379       .  A
C590       C2331   1.475       .  S
C591        H593   1.082       .  S
N594        N595   1.325       .  A
N594        C598   1.346       .  A
N595        C596   1.349       .  A
C596        C597   1.392       .  A
C596        H599   1.081       .  S
C597        C598   1.388       .  A
C597       C2287   1.496       .  S
C598        H600   1.081       .  S
N601        N602   1.320       .  A
N601        C605   1.351       .  A
N601       Cu609   2.099       .  S
N602        C603   1.340       .  A
N602       Cu608   2.056       .  S
C603        C604   1.385       .  A
C603        H606   1.081       .  S
C604        C605   1.396       .  A
C604       C2265   1.492       .  S
C605        H607   1.081       .  S
Cu608       N611   2.056       .  S
Cu609       N619   2.101       .  S
Cu610       N612   2.082       .  S
Cu610       N618   2.084       .  S
N611        N612   1.319       .  A
N611        C615   1.339       .  A
N612        C613   1.351       .  A
C613        C614   1.390       .  A
C613        H616   1.082       .  S
C614        C615   1.382       .  A
C614       C2343   1.480       .  S
C615        H617   1.082       .  S
N618        N619   1.326       .  A
N618        C622   1.344       .  A
N619        C620   1.349       .  A
C620        C621   1.389       .  A
C620        H623   1.082       .  S
C621        C622   1.385       .  A
C621       C2255   1.488       .  S
C622        H624   1.081       .  S
N625        N626   1.319       .  A
N625        C629   1.355       .  A
N625       Cu633   2.105       .  S
N626        C627   1.338       .  A
N626       Cu632   2.041       .  S
C627        C628   1.379       .  A
C627        H630   1.082       .  S
C628        C629   1.395       .  A
C628       C2321   1.484       .  S
C629        H631   1.082       .  S
Cu632       N635   2.040       .  S
Cu633       N643   2.108   1_565  S
Cu634       N636   2.093       .  S
Cu634       N642   2.097       .  S
N635        N636   1.319   1_565  A
N635        C639   1.336       .  A
N636        C637   1.352       .  A
C637        C638   1.393       .  A
C637        H640   1.082       .  S
C638        C639   1.378   1_545  A
C638       C2221   1.479       .  S
C639        H641   1.082       .  S
N642        N643   1.327       .  A
N642        C646   1.348       .  A
N643        C644   1.347       .  A
C644        C645   1.389       .  A
C644        H647   1.081       .  S
C645        C646   1.388       .  A
C645       C2199   1.493       .  S
C646        H648   1.082       .  S
N649        N650   1.319       .  A
N649        C653   1.353       .  A
N649       Cu657   2.106       .  S
N650        C651   1.338       .  A
N650       Cu656   2.039       .  S
C651        C652   1.379       .  A
C651        H654   1.082       .  S
C652        C653   1.396       .  A
C652       C2177   1.485       .  S
C653        H655   1.082       .  S
Cu656       N659   2.039       .  S
Cu657       N667   2.109   1_565  S
Cu658       N660   2.091       .  S
Cu658       N666   2.094       .  S
N659        N660   1.318   1_565  A
N659        C663   1.337       .  A
N660        C661   1.351       .  A
C661        C662   1.394       .  A
C661        H664   1.082       .  S
C662        C663   1.381   1_545  A
C662       C2233   1.483       .  S
C663        H665   1.081       .  S
N666        N667   1.327       .  A
N666        C670   1.347       .  A
N667        C668   1.350       .  A
C668        C669   1.389       .  A
C668        H671   1.082       .  S
C669        C670   1.386       .  A
C669       C2155   1.490       .  S
C670        H672   1.082       .  S
N673        N674   1.321       .  A
N673        C677   1.350       .  A
N673       Cu681   2.098       .  S
N674        C675   1.341       .  A
N674       Cu680   2.055       .  S
C675        C676   1.382       .  A
C675        H678   1.082       .  S
C676        C677   1.394       .  A
C676       C2111   1.486       .  S
C677        H679   1.082       .  S
Cu680       N683   2.056       .  S
Cu681       N691   2.100       .  S
Cu682       N684   2.088       .  S
Cu682       N690   2.090       .  S
N683        N684   1.320       .  A
N683        C687   1.341       .  A
N684        C685   1.350       .  A
C685        C686   1.391       .  A
C685        H688   1.082       .  S
C686        C687   1.383       .  A
C686       C2133   1.483       .  S
C687        H689   1.082       .  S
N690        N691   1.324       .  A
N690        C694   1.347       .  A
N691        C692   1.349       .  A
C692        C693   1.391       .  A
C692        H695   1.081       .  S
C693        C694   1.389       .  A
C693       C2089   1.494       .  S
C694        H696   1.081       .  S
N697        N698   1.321       .  A
N697        C701   1.352       .  A
N697       Cu705   2.100       .  S
N698        C699   1.341       .  A
N698       Cu704   2.058       .  S
C699        C700   1.383       .  A
C699        H702   1.082       .  S
C700        C701   1.394       .  A
C700       C2189   1.487       .  S
C701        H703   1.082       .  S
Cu704       N707   2.058       .  S
Cu705       N715   2.102       .  S
Cu706       N708   2.096       .  S
Cu706       N714   2.099       .  S
N707        N708   1.321       .  A
N707        C711   1.341       .  A
N708        C709   1.352       .  A
C709        C710   1.391       .  A
C709        H712   1.082       .  S
C710        C711   1.381       .  A
C710       C2145   1.481       .  S
C711        H713   1.082       .  S
N714        N715   1.325       .  A
N714        C718   1.348       .  A
N715        C716   1.350       .  A
C716        C717   1.390       .  A
C716        H719   1.082       .  S
C717        C718   1.390       .  A
C717       C2067   1.496       .  S
C718        H720   1.081       .  S
N721        N722   1.321       .  A
N721        C725   1.351       .  A
N721       Cu729   2.098       .  S
N722        C723   1.341       .  A
N722       Cu728   2.057       .  S
C723        C724   1.380       .  A
C723        H726   1.082       .  S
C724        C725   1.392       .  A
C724       C2277   1.481       .  S
C725        H727   1.082       .  S
Cu728       N731   2.058       .  S
Cu729       N739   2.100       .  S
Cu730       N732   2.099       .  S
Cu730       N738   2.100       .  S
N731        N732   1.320       .  A
N731        C735   1.341       .  A
N732        C733   1.351       .  A
C733        C734   1.393       .  A
C733        H736   1.082   1_556  S
C734        C735   1.383       .  A
C734       C2045   1.486       .  S
C735        H737   1.082       .  S
N738        N739   1.326       .  A
N738        C742   1.348       .  A
N739        C740   1.349       .  A
C740        C741   1.389       .  A
C740        H743   1.082       .  S
C741        C742   1.389       .  A
C741       C2023   1.493       .  S
C742        H744   1.082   1_556  S
N745        N746   1.320       .  A
N745        C749   1.351       .  A
N745       Cu753   2.086       .  S
N746        C747   1.339       .  A
N746       Cu752   2.061       .  S
C747        C748   1.383       .  A
C747        H750   1.082       .  S
C748        C749   1.391       .  A
C748       C2123   1.484       .  S
C749        H751   1.082       .  S
Cu752       N755   2.061       .  S
Cu753       N763   2.088       .  S
Cu754       N756   2.090       .  S
Cu754       N762   2.092       .  S
N755        N756   1.320       .  A
N755        C759   1.342       .  A
N756        C757   1.350       .  A
C757        C758   1.391       .  A
C757        H760   1.082       .  S
C758        C759   1.384       .  A
C758       C2057   1.485       .  S
C759        H761   1.082       .  S
N762        N763   1.325       .  A
N762        C766   1.347       .  A
N763        C764   1.346       .  A
C764        C765   1.386       .  A
C764        H767   1.082       .  S
C765        C766   1.387       .  A
C765       C2001   1.485       .  S
C766        H768   1.082       .  S
C769        C770   1.409       .  A
C769        C774   1.406       .  A
C769       C1979   1.497       .  S
C770        C771   1.414   1_565  A
C770        H775   1.083       .  S
C771        C772   1.413       .  A
C771       C2739   1.501       .  S
C772        C773   1.411       .  A
C772        H776   1.083       .  S
C773        C774   1.407   1_545  A
C773       C2035   1.496       .  S
C774        H777   1.083       .  S
C778        C779   1.410       .  A
C778        C783   1.405       .  A
C778       C2211   1.494       .  S
C779        C780   1.413       .  A
C779        H784   1.082       .  S
C780        C781   1.410       .  A
C780       C2441   1.500       .  S
C781        C782   1.406       .  A
C781        H785   1.083       .  S
C782        C783   1.402       .  A
C782       C2705   1.482       .  S
C783        H786   1.084       .  S
N787        N788   1.321       .  A
N787        C791   1.351       .  A
N787       Cu795   2.100       .  S
N788        C789   1.341       .  A
N788       Cu794   2.055       .  S
C789        C790   1.382       .  A
C789        H792   1.082       .  S
C790        C791   1.394       .  A
C790       C1935   1.487       .  S
C791        H793   1.082       .  S
Cu794       N797   2.056       .  S
Cu795       N805   2.102       .  S
Cu796       N798   2.084       .  S
Cu796       N804   2.086       .  S
N797        N798   1.320       .  A
N797        C801   1.341       .  A
N798        C799   1.349       .  A
C799        C800   1.390       .  A
C799        H802   1.082       .  S
C800        C801   1.383       .  A
C800       C1957   1.481       .  S
C801        H803   1.082       .  S
N804        N805   1.325       .  A
N804        C808   1.346       .  A
N805        C806   1.349       .  A
C806        C807   1.391       .  A
C806        H809   1.081       .  S
C807        C808   1.387       .  A
C807       C1913   1.493       .  S
C808        H810   1.081       .  S
N811        N812   1.322       .  A
N811        C815   1.353       .  A
N811       Cu819   2.105       .  S
N812        C813   1.340       .  A
N812       Cu818   2.055       .  S
C813        C814   1.380       .  A
C813        H816   1.082       .  S
C814        C815   1.392       .  A
C814       C1891   1.482       .  S
C815        H817   1.082       .  S
Cu818       N821   2.054       .  S
Cu819       N829   2.107       .  S
Cu820       N822   2.088       .  S
Cu820       N828   2.090       .  S
N821        N822   1.320       .  A
N821        C825   1.342       .  A
N822        C823   1.348       .  A
C823        C824   1.390       .  A
C823        H826   1.082       .  S
C824        C825   1.383       .  A
C824       C1969   1.481       .  S
C825        H827   1.082       .  S
N828        N829   1.325       .  A
N828        C832   1.348       .  A
N829        C830   1.350       .  A
C830        C831   1.392       .  A
C830        H833   1.081       .  S
C831        C832   1.388       .  A
C831       C1869   1.496       .  S
C832        H834   1.082       .  S
N835        N836   1.321       .  A
N835        C839   1.353       .  A
N835       Cu843   2.098       .  S
N836        C837   1.339       .  A
N836       Cu842   2.055       .  S
C837        C838   1.379       .  A
C837        H840   1.082       .  S
C838        C839   1.392       .  A
C838       C1947   1.480       .  S
C839        H841   1.082       .  S
Cu842       N845   2.056       .  S
Cu843       N853   2.101       .  S
Cu844       N846   2.091       .  S
Cu844       N852   2.093       .  S
N845        N846   1.319       .  A
N845        C849   1.342       .  A
N846        C847   1.350       .  A
C847        C848   1.393       .  A
C847        H850   1.082       .  S
C848        C849   1.384       .  A
C848       C1847   1.487       .  S
C849        H851   1.082       .  S
N852        N853   1.326       .  A
N852        C856   1.346       .  A
N853        C854   1.349       .  A
C854        C855   1.390       .  A
C854        H857   1.082       .  S
C855        C856   1.387       .  A
C855       C1825   1.491   1_556  S
C856        H858   1.081       .  S
N859        N860   1.321       .  A
N859        C863   1.353       .  A
N859       Cu867   2.103       .  S
N860        C861   1.341       .  A
N860       Cu866   2.063       .  S
C861        C862   1.383       .  A
C861        H864   1.082       .  S
C862        C863   1.394       .  A
C862       C1815   1.488       .  S
C863        H865   1.082       .  S
Cu866       N869   2.063       .  S
Cu867       N877   2.105       .  S
Cu868       N870   2.104       .  S
Cu868       N876   2.106       .  S
N869        N870   1.320       .  A
N869        C873   1.341       .  A
N870        C871   1.354       .  A
C871        C872   1.395       .  A
C871        H874   1.082       .  S
C872        C873   1.384       .  A
C872       C1859   1.490       .  S
C873        H875   1.082       .  S
N876        N877   1.327       .  A
N876        C880   1.349       .  A
N877        C878   1.350       .  A
C878        C879   1.390       .  A
C878        H881   1.082       .  S
C879        C880   1.390       .  A
C879       C1991   1.496       .  S
C880        H882   1.081       .  S
N883        N884   1.322       .  A
N883        C887   1.349       .  A
N883       Cu891   2.091       .  S
N884        C885   1.342       .  A
N884       Cu890   2.066       .  S
C885        C886   1.382       .  A
C885        H888   1.082       .  S
C886        C887   1.389       .  A
C886       C1903   1.479       .  S
C887        H889   1.082       .  S
Cu890       N893   2.066       .  S
Cu891       N901   2.092       .  S
Cu892       N894   2.078       .  S
Cu892       N900   2.080       .  S
N893        N894   1.321       .  A
N893        C897   1.344       .  A
N894        C895   1.346       .  A
C895        C896   1.387       .  A
C895        H898   1.082       .  S
C896        C897   1.384       .  A
C896       C1781   1.479       .  S
C897        H899   1.082       .  S
N900        N901   1.324       .  A
N900        C904   1.345       .  A
N901        C902   1.348       .  A
C902        C903   1.388       .  A
C902        H905   1.082       .  S
C903        C904   1.385       .  A
C903       C1771   1.486       .  S
C904        H906   1.082       .  S
N907        N908   1.320       .  A
N907        C911   1.349       .  A
N907       Cu915   2.085       .  S
N908        C909   1.340       .  A
N908       Cu914   2.056       .  S
C909        C910   1.382       .  A
C909        H912   1.082       .  S
C910        C911   1.391       .  A
C910       C1749   1.482       .  S
C911        H913   1.082       .  S
Cu914       N917   2.056       .  S
Cu915       N925   2.087       .  S
Cu916       N918   2.073       .  S
Cu916       N924   2.075       .  S
N917        N918   1.319       .  A
N917        C921   1.341       .  A
N918        C919   1.347       .  A
C919        C920   1.388       .  A
C919        H922   1.082       .  S
C920        C921   1.383       .  A
C920       C1793   1.478       .  S
C921        H923   1.082       .  S
N924        N925   1.325       .  A
N924        C928   1.344       .  A
N925        C926   1.346       .  A
C926        C927   1.386       .  A
C926        H929   1.082       .  S
C927        C928   1.383       .  A
C927       C1727   1.479       .  S
C928        H930   1.082       .  S
N931        N932   1.321       .  A
N931        C935   1.352       .  A
N931       Cu939   2.100       .  S
N932        C933   1.342       .  A
N932       Cu938   2.064       .  S
C933        C934   1.383       .  A
C933        H936   1.082       .  S
C934        C935   1.394       .  A
C934       C1803   1.488       .  S
C935        H937   1.082       .  S
Cu938       N941   2.065       .  S
Cu939       N949   2.102       .  S
Cu940       N942   2.086       .  S
Cu940       N948   2.089       .  S
N941        N942   1.321       .  A
N941        C945   1.340       .  A
N942        C943   1.351       .  A
C943        C944   1.390       .  A
C943        H946   1.082       .  S
C944        C945   1.383       .  A
C944       C1693   1.483       .  S
C945        H947   1.082       .  S
N948        N949   1.325       .  A
N948        C952   1.347       .  A
N949        C950   1.348       .  A
C950        C951   1.389       .  A
C950        H953   1.082       .  S
C951        C952   1.387       .  A
C951       C1671   1.490       .  S
C952        H954   1.082       .  S
N955        N956   1.322       .  A
N955        C959   1.351       .  A
N955       Cu963   2.093       .  S
N956        C957   1.340       .  A
N956       Cu962   2.063       .  S
C957        C958   1.382       .  A
C957        H960   1.082       .  S
C958        C959   1.391       .  A
C958       C1737   1.482       .  S
C959        H961   1.082       .  S
Cu962       N965   2.063       .  S
Cu963       N973   2.095       .  S
Cu964       N966   2.083       .  S
Cu964       N972   2.086       .  S
N965        N966   1.320       .  A
N965        C969   1.342       .  A
N966        C967   1.350       .  A
C967        C968   1.388       .  A
C967        H970   1.082       .  S
C968        C969   1.383       .  A
C968       C1705   1.479       .  S
C969        H971   1.082       .  S
N972        N973   1.324       .  A
N972        C976   1.345       .  A
N973        C974   1.349       .  A
C974        C975   1.390       .  A
C974        H977   1.082       .  S
C975        C976   1.387       .  A
C975       C1661   1.491       .  S
C976        H978   1.081       .  S
C979        C980   1.406       .  A
C979        C984   1.409       .  A
C979       C1627   1.495       .  S
C980        C981   1.405       .  A
C980        H985   1.083       .  S
C981        C982   1.408       .  A
C981       C1759   1.494       .  S
C982        C983   1.411       .  A
C982        H986   1.082   1_556  S
C983        C984   1.414       .  A
C983       C3343   1.502       .  S
C984        H987   1.082       .  S
C988        C989   1.406       .  A
C988        C993   1.407       .  A
C988       C3311   1.489       .  S
C989        C990   1.407       .  A
C989        H994   1.084       .  S
C990        C991   1.409       .  A
C990       C1837   1.494       .  S
C991        C992   1.410       .  A
C991        H995   1.083       .  S
C992        C993   1.409       .  A
C992       C2959   1.496       .  S
C993        H996   1.083       .  S
N997        N998   1.320       .  A
N997       C1001   1.349       .  A
N997      Cu1005   2.087       .  S
N998        C999   1.340       .  A
N998      Cu1004   2.053       .  S
C999       C1000   1.382       .  A
C999       H1002   1.082       .  S
C1000      C1001   1.391       .  A
C1000      C1583   1.481       .  S
C1001      H1003   1.082       .  S
Cu1004     N1007   2.055       .  S
Cu1005     N1015   2.089       .  S
Cu1006     N1008   2.100       .  S
Cu1006     N1014   2.102       .  S
N1007      N1008   1.321       .  A
N1007      C1011   1.341       .  A
N1008      C1009   1.353       .  A
C1009      C1010   1.392       .  A
C1009      H1012   1.082       .  S
C1010      C1011   1.380       .  A
C1010      C1605   1.481       .  S
C1011      H1013   1.082       .  S
N1014      N1015   1.326       .  A
N1014      C1018   1.348       .  A
N1015      C1016   1.348       .  A
C1016      C1017   1.386       .  A
C1016      H1019   1.082       .  S
C1017      C1018   1.388       .  A
C1017      C1561   1.487       .  S
C1018      H1020   1.082       .  S
N1021      N1022   1.320       .  A
N1021      C1025   1.350       .  A
N1021     Cu1029   2.092       .  S
N1022      C1023   1.340       .  A
N1022     Cu1028   2.053       .  S
C1023      C1024   1.382       .  A
C1023      H1026   1.082       .  S
C1024      C1025   1.393       .  A
C1024      C1551   1.484       .  S
C1025      H1027   1.082       .  S
Cu1028     N1031   2.054       .  S
Cu1029     N1039   2.094       .  S
Cu1030     N1032   2.099       .  S
Cu1030     N1038   2.101       .  S
N1031      N1032   1.321       .  A
N1031      C1035   1.341       .  A
N1032      C1033   1.352       .  A
C1033      C1034   1.391       .  A
C1033      H1036   1.082       .  S
C1034      C1035   1.379       .  A
C1034      C1617   1.479       .  S
C1035      H1037   1.082       .  S
N1038      N1039   1.325       .  A
N1038      C1042   1.348       .  A
N1039      C1040   1.348       .  A
C1040      C1041   1.388       .  A
C1040      H1043   1.082       .  S
C1041      C1042   1.390       .  A
C1041      C1529   1.493       .  S
C1042      H1044   1.081       .  S
N1045      N1046   1.321       .  A
N1045      C1049   1.349       .  A
N1045     Cu1053   2.096       .  S
N1046      C1047   1.341       .  A
N1046     Cu1052   2.056       .  S
C1047      C1048   1.382       .  A
C1047      H1050   1.082       .  S
C1048      C1049   1.392       .  A
C1048      C1595   1.484       .  S
C1049      H1051   1.082       .  S
Cu1052     N1055   2.056       .  S
Cu1053     N1063   2.098       .  S
Cu1054     N1056   2.082       .  S
Cu1054     N1062   2.083       .  S
N1055      N1056   1.319       .  A
N1055      C1059   1.341       .  A
N1056      C1057   1.347       .  A
C1057      C1058   1.391       .  A
C1057      H1060   1.081       .  S
C1058      C1059   1.384       .  A
C1058      C1495   1.484       .  S
C1059      H1061   1.081       .  S
N1062      N1063   1.324       .  A
N1062      C1066   1.345       .  A
N1063      C1064   1.350       .  A
C1064      C1065   1.390       .  A
C1064      H1067   1.082       .  S
C1065      C1066   1.386       .  A
C1065      C1485   1.490       .  S
C1066      H1068   1.082       .  S
N1069      N1070   1.320       .  A
N1069      C1073   1.353       .  A
N1069     Cu1077   2.094       .  S
N1070      C1071   1.338       .  A
N1070     Cu1076   2.050       .  S
C1071      C1072   1.379       .  A
C1071      H1074   1.082       .  S
C1072      C1073   1.391       .  A
C1072      C1451   1.479       .  S
C1073      H1075   1.082       .  S
Cu1076     N1079   2.050       .  S
Cu1077     N1087   2.097       .  S
Cu1078     N1080   2.091       .  S
Cu1078     N1086   2.093       .  S
N1079      N1080   1.319       .  A
N1079      C1083   1.340       .  A
N1080      C1081   1.350       .  A
C1081      C1082   1.392       .  A
C1081      H1084   1.082       .  S
C1082      C1083   1.382       .  A
C1082      C1507   1.483       .  S
C1083      H1085   1.082       .  S
N1086      N1087   1.326       .  A
N1086      C1090   1.347       .  A
N1087      C1088   1.347       .  A
C1088      C1089   1.388       .  A
C1088      H1091   1.081       .  S
C1089      C1090   1.387       .  A
C1089      C1639   1.490       .  S
C1090      H1092   1.082       .  S
N1093      N1094   1.320       .  A
N1093      C1097   1.352       .  A
N1093     Cu1101   2.097       .  S
N1094      C1095   1.337       .  A
N1094     Cu1100   2.040       .  S
C1095      C1096   1.379       .  A
C1095      H1098   1.082       .  S
C1096      C1097   1.394       .  A
C1096      C1539   1.481       .  S
C1097      H1099   1.082       .  S
Cu1100     N1103   2.041       .  S
Cu1101     N1111   2.100       .  S
Cu1102     N1104   2.093       .  S
Cu1102     N1110   2.096       .  S
N1103      N1104   1.319   1_565  A
N1103      C1107   1.339       .  A
N1104      C1105   1.351       .  A
C1105      C1106   1.392       .  A
C1105      H1108   1.082       .  S
C1106      C1107   1.378   1_545  A
C1106      C1429   1.476       .  S
C1107      H1109   1.082       .  S
N1110      N1111   1.327   1_545  A
N1110      C1114   1.345       .  A
N1111      C1112   1.350       .  A
C1112      C1113   1.389   1_565  A
C1112      H1115   1.082       .  S
C1113      C1114   1.387       .  A
C1113      C1407   1.491       .  S
C1114      H1116   1.081       .  S
N1117      N1118   1.320       .  A
N1117      C1121   1.346       .  A
N1117     Cu1125   2.076       .  S
N1118      C1119   1.341       .  A
N1118     Cu1124   2.055       .  S
C1119      C1120   1.381       .  A
C1119      H1122   1.082       .  S
C1120      C1121   1.388       .  A
C1120      C1385   1.475       .  S
C1121      H1123   1.082       .  S
Cu1124     N1127   2.056       .  S
Cu1125     N1135   2.077       .  S
Cu1126     N1128   2.087       .  S
Cu1126     N1134   2.089       .  S
N1127      N1128   1.320       .  A
N1127      C1131   1.339       .  A
N1128      C1129   1.351       .  A
C1129      C1130   1.392       .  A
C1129      H1132   1.082       .  S
C1130      C1131   1.382       .  A
C1130      C1441   1.482       .  S
C1131      H1133   1.082       .  S
N1134      N1135   1.324       .  A
N1134      C1138   1.345       .  A
N1135      C1136   1.345       .  A
C1136      C1137   1.385       .  A
C1136      H1139   1.081       .  S
C1137      C1138   1.388       .  A
C1137      C1363   1.485       .  S
C1138      H1140   1.081       .  S
N1141      N1142   1.321       .  A
N1141      C1145   1.351       .  A
N1141     Cu1149   2.091       .  S
N1142      C1143   1.338       .  A
N1142     Cu1148   2.053       .  S
C1143      C1144   1.381       .  A
C1143      H1146   1.081       .  S
C1144      C1145   1.392       .  A
C1144      C1397   1.483       .  S
C1145      H1147   1.082       .  S
Cu1148     N1151   2.054       .  S
Cu1149     N1159   2.093       .  S
Cu1150     N1152   2.083       .  S
Cu1150     N1158   2.085       .  S
N1151      N1152   1.319       .  A
N1151      C1155   1.342       .  A
N1152      C1153   1.348       .  A
C1153      C1154   1.390       .  A
C1153      H1156   1.082       .  S
C1154      C1155   1.384       .  A
C1154      C1353   1.482       .  S
C1155      H1157   1.082       .  S
N1158      N1159   1.325       .  A
N1158      C1162   1.344       .  A
N1159      C1160   1.349       .  A
C1160      C1161   1.388       .  A
C1160      H1163   1.082       .  S
C1161      C1162   1.386       .  A
C1161      C1319   1.487       .  S
C1162      H1164   1.081       .  S
N1165      N1166   1.321       .  A
N1165      C1169   1.351       .  A
N1165     Cu1173   2.096       .  S
N1166      C1167   1.340       .  A
N1166     Cu1172   2.054       .  S
C1167      C1168   1.380       .  A
C1167      H1170   1.082       .  S
C1168      C1169   1.391       .  A
C1168      C1463   1.480       .  S
C1169      H1171   1.082       .  S
Cu1172     N1175   2.055       .  S
Cu1173     N1183   2.098       .  S
Cu1174     N1176   2.088       .  S
Cu1174     N1182   2.090       .  S
N1175      N1176   1.320       .  A
N1175      C1179   1.341       .  A
N1176      C1177   1.349       .  A
C1177      C1178   1.390       .  A
C1177      H1180   1.082       .  S
C1178      C1179   1.382       .  A
C1178      C1341   1.480       .  S
C1179      H1181   1.082       .  S
N1182      N1183   1.325       .  A
N1182      C1186   1.347       .  A
N1183      C1184   1.348       .  A
C1184      C1185   1.389       .  A
C1184      H1187   1.082       .  S
C1185      C1186   1.387       .  A
C1185      C1309   1.489       .  S
C1186      H1188   1.082       .  S
C1189      C1190   1.411       .  A
C1189      C1194   1.411       .  A
C1189      C2167   1.496       .  S
C1190      C1191   1.407       .  A
C1190      H1195   1.083       .  S
C1191      C1192   1.407       .  A
C1191      C1419   1.492       .  S
C1192      C1193   1.406       .  A
C1192      H1196   1.083   1_655  S
C1193      C1194   1.408       .  A
C1193      C2529   1.494       .  S
C1194      H1197   1.083       .  S
C1198      C1199   1.410       .  A
C1198      C1203   1.411       .  A
C1198      C2519   1.500       .  S
C1199      C1200   1.408       .  A
C1199      H1204   1.083       .  S
C1200      C1201   1.408       .  A
C1200      C1473   1.495       .  S
C1201      C1202   1.406       .  A
C1201      H1205   1.084       .  S
C1202      C1203   1.409       .  A
C1202      C3135   1.487       .  S
C1203      H1206   1.083       .  S
C1207      C1208   1.408   1_565  A
C1207      C1212   1.408       .  A
C1207      C2013   1.491   1_565  S
C1208      C1209   1.404   1_545  A
C1208      H1213   1.083       .  S
C1209      C1210   1.402       .  A
C1209      C1375   1.481   1_565  S
C1210      C1211   1.403       .  A
C1210      H1214   1.084   1_655  S
C1211      C1212   1.406       .  A
C1211      C1715   1.488       .  S
C1212      H1215   1.083   1_556  S
C1216      C1217   1.405       .  A
C1216      C1221   1.406       .  A
C1216      C1573   1.484       .  S
C1217      C1218   1.406       .  A
C1217      H1222   1.084       .  S
C1218      C1219   1.408       .  A
C1218      C2299   1.488       .  S
C1219      C1220   1.409       .  A
C1219      H1223   1.084       .  S
C1220      C1221   1.408       .  A
C1220      C1925   1.491       .  S
C1221      H1224   1.084       .  S
C1225      C1226   1.407       .  A
C1225      C1230   1.408       .  A
C1225      C1517   1.491       .  S
C1226      C1227   1.407       .  A
C1226      H1231   1.083       .  S
C1227      C1228   1.408       .  A
C1227      C1683   1.490       .  S
C1228      C1229   1.409       .  A
C1228      H1232   1.083       .  S
C1229      C1230   1.407       .  A
C1229      C3091   1.494       .  S
C1230      H1233   1.083       .  S
C1234      C1235   1.406       .  A
C1234      C1239   1.406       .  A
C1234      C2243   1.490       .  S
C1235      C1236   1.406       .  A
C1235      H1240   1.083       .  S
C1236      C1237   1.409       .  A
C1236      C2651   1.493       .  S
C1237      C1238   1.411       .  A
C1237      H1241   1.083       .  S
C1238      C1239   1.407       .  A
C1238      C1297   1.494       .  S
C1239      H1242   1.083       .  S
C1243      C1244   1.412       .  A
C1243      C1248   1.411       .  A
C1243      C1881   1.499       .  S
C1244      C1245   1.411       .  A
C1244      H1249   1.083       .  S
C1245      C1246   1.408       .  A
C1245      C2079   1.499       .  S
C1246      C1247   1.409       .  A
C1246      H1250   1.083       .  S
C1247      C1248   1.410       .  A
C1247      C2903   1.498       .  S
C1248      H1251   1.083       .  S
C1252      C1253   1.411       .  A
C1252      C1257   1.409       .  A
C1252      C2771   1.494       .  S
C1253      C1254   1.413       .  A
C1253      H1258   1.083       .  S
C1254      C1255   1.407       .  A
C1254      C2607   1.498       .  S
C1255      C1256   1.406       .  A
C1255      H1259   1.083       .  S
C1256      C1257   1.408       .  A
C1256      C2101   1.491       .  S
C1257      H1260   1.084       .  S
C1261      C1262   1.406       .  A
C1261      C1266   1.406       .  A
C1261      C2375   1.490       .  S
C1262      C1263   1.407       .  A
C1262      H1267   1.083       .  S
C1263      C1264   1.408       .  A
C1263      C3069   1.492       .  S
C1264      C1265   1.408       .  A
C1264      H1268   1.083       .  S
C1265      C1266   1.407       .  A
C1265      C1331   1.490       .  S
C1266      H1269   1.083       .  S
C1270      C1271   1.404       .  A
C1270      C1275   1.405       .  A
C1270      C3245   1.491       .  S
C1271      C1272   1.406       .  A
C1271      H1276   1.083       .  S
C1272      C1273   1.410       .  A
C1272      C2859   1.491       .  S
C1273      C1274   1.412       .  A
C1273      H1277   1.083       .  S
C1274      C1275   1.408       .  A
C1274      C1649   1.492       .  S
C1275      H1278   1.083       .  S
C1279      C1280   1.407       .  A
C1279      C1284   1.407       .  A
C1279      C2431   1.493       .  S
C1280      C1281   1.409       .  A
C1280      H1285   1.084       .  S
C1281      C1282   1.410       .  A
C1281      C3157   1.493       .  S
C1282      C1283   1.409       .  A
C1282      H1286   1.083       .  S
C1283      C1284   1.410       .  A
C1283      C3003   1.498       .  S
C1284      H1287   1.083       .  S
C1288      C1289   1.405       .  A
C1288      C1293   1.404       .  A
C1288      C2365   1.486       .  S
C1289      C1290   1.409       .  A
C1289      H1294   1.083       .  S
C1290      C1291   1.410       .  A
C1290      C2805   1.494       .  S
C1291      C1292   1.408       .  A
C1291      H1295   1.083       .  S
C1292      C1293   1.405       .  A
C1292      C3223   1.491       .  S
C1293      H1296   1.083       .  S
C1297      C1298   1.402       .  A
C1297      C1302   1.405       .  A
C1298      C1299   1.399       .  A
C1298      H1311   1.083       .  S
C1299      C1300   1.415       .  A
C1299      H1312   1.077       .  S
C1300      C1306   1.434       .  A
C1300      C1301   1.422       .  A
C1301      C1303   1.400       .  A
C1301      C1302   1.409       .  A
C1302      H1313   1.084       .  S
C1303      C1304   1.392       .  A
C1303      H1314   1.084       .  S
C1304      C1305   1.400       .  A
C1304      H1315   1.084       .  S
C1305      C1306   1.423       .  A
C1305      C1310   1.409       .  A
C1306      C1307   1.415       .  A
C1307      C1308   1.399       .  A
C1307      H1316   1.077       .  S
C1308      C1309   1.401       .  A
C1308      H1317   1.083       .  S
C1309      C1310   1.404       .  A
C1310      H1318   1.084       .  S
C1319      C1320   1.402       .  A
C1319      C1324   1.403       .  A
C1320      C1321   1.396       .  A
C1320      H1333   1.082       .  S
C1321      C1322   1.414       .  A
C1321      H1334   1.077       .  S
C1322      C1328   1.432       .  A
C1322      C1323   1.423       .  A
C1323      C1325   1.400       .  A
C1323      C1324   1.409       .  A
C1324      H1335   1.084       .  S
C1325      C1326   1.392       .  A
C1325      H1336   1.084       .  S
C1326      C1327   1.400       .  A
C1326      H1337   1.084       .  S
C1327      C1328   1.422       .  A
C1327      C1332   1.408       .  A
C1328      C1329   1.416       .  A
C1329      C1330   1.398       .  A
C1329      H1338   1.077       .  S
C1330      C1331   1.401       .  A
C1330      H1339   1.083       .  S
C1331      C1332   1.404       .  A
C1332      H1340   1.084       .  S
C1341      C1342   1.399       .  A
C1341      C1346   1.402       .  A
C1342      C1343   1.399       .  A
C1342      H1355   1.083       .  S
C1343      C1344   1.417   1_655  A
C1343      H1356   1.077       .  S
C1344      C1350   1.431       .  A
C1344      C1345   1.421       .  A
C1345      C1347   1.400       .  A
C1345      C1346   1.404   1_455  A
C1346      H1357   1.084       .  S
C1347      C1348   1.390       .  A
C1347      H1358   1.084       .  S
C1348      C1349   1.399       .  A
C1348      H1359   1.084       .  S
C1349      C1350   1.423       .  A
C1349      C1354   1.406       .  A
C1350      C1351   1.414       .  A
C1351      C1352   1.397       .  A
C1351      H1360   1.077       .  S
C1352      C1353   1.402       .  A
C1352      H1361   1.083       .  S
C1353      C1354   1.400       .  A
C1354      H1362   1.084       .  S
C1363      C1364   1.400       .  A
C1363      C1368   1.404       .  A
C1364      C1365   1.394       .  A
C1364      H1377   1.082       .  S
C1365      C1366   1.414       .  A
C1365      H1378   1.077       .  S
C1366      C1372   1.429       .  A
C1366      C1367   1.422       .  A
C1367      C1369   1.401       .  A
C1367      C1368   1.407       .  A
C1368      H1379   1.083       .  S
C1369      C1370   1.392       .  A
C1369      H1380   1.084       .  S
C1370      C1371   1.400       .  A
C1370      H1381   1.084       .  S
C1371      C1372   1.423       .  A
C1371      C1376   1.407   1_455  A
C1372      C1373   1.414       .  A
C1373      C1374   1.393   1_445  A
C1373      H1382   1.077   1_545  S
C1374      C1375   1.399   1_565  A
C1374      H1383   1.084       .  S
C1375      C1376   1.401       .  A
C1376      H1384   1.085       .  S
C1385      C1386   1.400       .  A
C1385      C1390   1.398       .  A
C1386      C1387   1.397       .  A
C1386      H1399   1.083       .  S
C1387      C1388   1.414       .  A
C1387      H1400   1.078       .  S
C1388      C1394   1.430       .  A
C1388      C1389   1.424       .  A
C1389      C1391   1.398       .  A
C1389      C1390   1.403       .  A
C1390      H1401   1.084       .  S
C1391      C1392   1.387       .  A
C1391      H1402   1.084       .  S
C1392      C1393   1.399       .  A
C1392      H1403   1.084       .  S
C1393      C1394   1.421       .  A
C1393      C1398   1.400       .  A
C1394      C1395   1.417       .  A
C1395      C1396   1.401       .  A
C1395      H1404   1.078       .  S
C1396      C1397   1.400       .  A
C1396      H1405   1.083       .  S
C1397      C1398   1.402       .  A
C1398      H1406   1.084       .  S
C1407      C1408   1.401       .  A
C1407      C1412   1.406       .  A
C1408      C1409   1.397       .  A
C1408      H1421   1.082       .  S
C1409      C1410   1.415       .  A
C1409      H1422   1.072       .  S
C1410      C1416   1.434       .  A
C1410      C1411   1.422       .  A
C1411      C1413   1.401       .  A
C1411      C1412   1.412       .  A
C1412      H1423   1.083   1_545  S
C1413      C1414   1.394       .  A
C1413      H1424   1.084   1_545  S
C1414      C1415   1.401       .  A
C1414      H1425   1.083       .  S
C1415      C1416   1.422       .  A
C1415      C1420   1.412   1_455  A
C1416      C1417   1.415       .  A
C1417      C1418   1.397       .  A
C1417      H1426   1.072       .  S
C1418      C1419   1.400   1_455  A
C1418      H1427   1.084   1_455  S
C1419      C1420   1.406       .  A
C1420      H1428   1.083       .  S
C1429      C1430   1.401   1_545  A
C1429      C1434   1.397       .  A
C1430      C1431   1.397   1_565  A
C1430      H1443   1.083       .  S
C1431      C1432   1.413       .  A
C1431      H1444   1.077   1_545  S
C1432      C1438   1.431       .  A
C1432      C1433   1.425       .  A
C1433      C1435   1.398       .  A
C1433      C1434   1.406       .  A
C1434      H1445   1.085       .  S
C1435      C1436   1.388       .  A
C1435      H1446   1.084       .  S
C1436      C1437   1.399       .  A
C1436      H1447   1.084       .  S
C1437      C1438   1.420       .  A
C1437      C1442   1.401       .  A
C1438      C1439   1.418       .  A
C1439      C1440   1.401       .  A
C1439      H1448   1.077       .  S
C1440      C1441   1.400       .  A
C1440      H1449   1.083       .  S
C1441      C1442   1.402       .  A
C1442      H1450   1.084       .  S
C1451      C1452   1.401       .  A
C1451      C1456   1.400       .  A
C1452      C1453   1.393       .  A
C1452      H1465   1.083       .  S
C1453      C1454   1.412       .  A
C1453      H1466   1.077       .  S
C1454      C1460   1.430       .  A
C1454      C1455   1.425       .  A
C1455      C1457   1.400       .  A
C1455      C1456   1.410       .  A
C1456      H1467   1.084       .  S
C1457      C1458   1.392       .  A
C1457      H1468   1.084       .  S
C1458      C1459   1.401       .  A
C1458      H1469   1.084       .  S
C1459      C1460   1.420       .  A
C1459      C1464   1.405       .  A
C1460      C1461   1.418       .  A
C1461      C1462   1.399       .  A
C1461      H1470   1.078       .  S
C1462      C1463   1.398       .  A
C1462      H1471   1.083       .  S
C1463      C1464   1.403       .  A
C1464      H1472   1.085       .  S
C1473      C1474   1.403       .  A
C1473      C1478   1.404       .  A
C1474      C1475   1.403       .  A
C1474      H1487   1.083       .  S
C1475      C1476   1.417       .  A
C1475      H1488   1.078       .  S
C1476      C1482   1.436       .  A
C1476      C1477   1.423       .  A
C1477      C1479   1.399       .  A
C1477      C1478   1.406       .  A
C1478      H1489   1.084       .  S
C1479      C1480   1.389       .  A
C1479      H1490   1.084       .  S
C1480      C1481   1.399       .  A
C1480      H1491   1.084   1_455  S
C1481      C1482   1.423       .  A
C1481      C1486   1.406   1_455  A
C1482      C1483   1.417       .  A
C1483      C1484   1.403   1_455  A
C1483      H1492   1.078       .  S
C1484      C1485   1.402       .  A
C1484      H1493   1.083       .  S
C1485      C1486   1.403       .  A
C1486      H1494   1.084       .  S
C1495      C1496   1.400       .  A
C1495      C1500   1.404       .  A
C1496      C1497   1.397       .  A
C1496      H1509   1.082       .  S
C1497      C1498   1.416       .  A
C1497      H1510   1.077       .  S
C1498      C1504   1.430       .  A
C1498      C1499   1.421       .  A
C1499      C1501   1.400       .  A
C1499      C1500   1.404       .  A
C1500      H1511   1.083       .  S
C1501      C1502   1.390       .  A
C1501      H1512   1.084       .  S
C1502      C1503   1.399       .  A
C1502      H1513   1.084       .  S
C1503      C1504   1.424       .  A
C1503      C1508   1.408       .  A
C1504      C1505   1.413       .  A
C1505      C1506   1.394       .  A
C1505      H1514   1.077       .  S
C1506      C1507   1.402       .  A
C1506      H1515   1.083       .  S
C1507      C1508   1.401       .  A
C1508      H1516   1.084       .  S
C1517      C1518   1.403       .  A
C1517      C1522   1.402       .  A
C1518      C1519   1.402       .  A
C1518      H1531   1.083       .  S
C1519      C1520   1.417       .  A
C1519      H1532   1.078       .  S
C1520      C1526   1.436       .  A
C1520      C1521   1.423       .  A
C1521      C1523   1.399       .  A
C1521      C1522   1.406       .  A
C1522      H1533   1.084       .  S
C1523      C1524   1.389       .  A
C1523      H1534   1.084       .  S
C1524      C1525   1.399       .  A
C1524      H1535   1.084       .  S
C1525      C1526   1.423       .  A
C1525      C1530   1.407       .  A
C1526      C1527   1.416       .  A
C1527      C1528   1.402       .  A
C1527      H1536   1.078       .  S
C1528      C1529   1.404       .  A
C1528      H1537   1.082       .  S
C1529      C1530   1.403       .  A
C1530      H1538   1.083       .  S
C1539      C1540   1.399       .  A
C1539      C1544   1.402       .  A
C1540      C1541   1.401       .  A
C1540      H1553   1.083       .  S
C1541      C1542   1.418       .  A
C1541      H1554   1.077       .  S
C1542      C1548   1.431       .  A
C1542      C1543   1.420       .  A
C1543      C1545   1.400       .  A
C1543      C1544   1.402       .  A
C1544      H1555   1.084       .  S
C1545      C1546   1.389       .  A
C1545      H1556   1.084       .  S
C1546      C1547   1.398       .  A
C1546      H1557   1.084       .  S
C1547      C1548   1.424       .  A
C1547      C1552   1.406       .  A
C1548      C1549   1.413       .  A
C1549      C1550   1.396       .  A
C1549      H1558   1.077       .  S
C1550      C1551   1.403       .  A
C1550      H1559   1.083       .  S
C1551      C1552   1.400       .  A
C1552      H1560   1.084       .  S
C1561      C1562   1.401       .  A
C1561      C1566   1.403       .  A
C1562      C1563   1.400       .  A
C1562      H1575   1.083       .  S
C1563      C1564   1.416       .  A
C1563      H1576   1.077       .  S
C1564      C1570   1.434       .  A
C1564      C1565   1.423       .  A
C1565      C1567   1.400       .  A
C1565      C1566   1.409       .  A
C1566      H1577   1.084       .  S
C1567      C1568   1.391       .  A
C1567      H1578   1.084       .  S
C1568      C1569   1.400       .  A
C1568      H1579   1.084       .  S
C1569      C1570   1.423       .  A
C1569      C1574   1.408       .  A
C1570      C1571   1.417       .  A
C1571      C1572   1.400       .  A
C1571      H1580   1.077       .  S
C1572      C1573   1.399       .  A
C1572      H1581   1.083       .  S
C1573      C1574   1.401       .  A
C1574      H1582   1.085       .  S
C1583      C1584   1.401       .  A
C1583      C1588   1.401       .  A
C1584      C1585   1.396       .  A
C1584      H1597   1.083       .  S
C1585      C1586   1.414       .  A
C1585      H1598   1.078       .  S
C1586      C1592   1.431       .  A
C1586      C1587   1.424       .  A
C1587      C1589   1.399       .  A
C1587      C1588   1.406       .  A
C1588      H1599   1.084       .  S
C1589      C1590   1.390       .  A
C1589      H1600   1.084       .  S
C1590      C1591   1.400       .  A
C1590      H1601   1.084       .  S
C1591      C1592   1.421       .  A
C1591      C1596   1.405       .  A
C1592      C1593   1.416       .  A
C1593      C1594   1.398       .  A
C1593      H1602   1.077       .  S
C1594      C1595   1.400       .  A
C1594      H1603   1.082       .  S
C1595      C1596   1.404       .  A
C1596      H1604   1.084       .  S
C1605      C1606   1.401       .  A
C1605      C1610   1.400       .  A
C1606      C1607   1.396       .  A
C1606      H1619   1.083       .  S
C1607      C1608   1.413       .  A
C1607      H1620   1.078   1_655  S
C1608      C1614   1.432   1_655  A
C1608      C1609   1.425       .  A
C1609      C1611   1.400       .  A
C1609      C1610   1.410       .  A
C1610      H1621   1.084       .  S
C1611      C1612   1.392   1_655  A
C1611      H1622   1.084       .  S
C1612      C1613   1.400       .  A
C1612      H1623   1.084       .  S
C1613      C1614   1.421       .  A
C1613      C1618   1.406       .  A
C1614      C1615   1.418       .  A
C1615      C1616   1.401       .  A
C1615      H1624   1.078       .  S
C1616      C1617   1.398       .  A
C1616      H1625   1.083       .  S
C1617      C1618   1.402       .  A
C1618      H1626   1.085       .  S
C1627      C1628   1.404       .  A
C1627      C1632   1.404       .  A
C1628      C1629   1.399       .  A
C1628      H1641   1.083       .  S
C1629      C1630   1.414       .  A
C1629      H1642   1.077       .  S
C1630      C1636   1.435       .  A
C1630      C1631   1.423       .  A
C1631      C1633   1.400       .  A
C1631      C1632   1.410       .  A
C1632      H1643   1.084       .  S
C1633      C1634   1.391       .  A
C1633      H1644   1.084       .  S
C1634      C1635   1.400       .  A
C1634      H1645   1.084       .  S
C1635      C1636   1.422       .  A
C1635      C1640   1.408       .  A
C1636      C1637   1.416       .  A
C1637      C1638   1.400   1_455  A
C1637      H1646   1.077       .  S
C1638      C1639   1.402       .  A
C1638      H1647   1.083       .  S
C1639      C1640   1.403   1_655  A
C1640      H1648   1.083       .  S
C1649      C1650   1.401       .  A
C1649      C1654   1.404       .  A
C1650      C1651   1.401       .  A
C1650      H1663   1.083       .  S
C1651      C1652   1.417       .  A
C1651      H1664   1.077       .  S
C1652      C1658   1.435       .  A
C1652      C1653   1.422       .  A
C1653      C1655   1.400       .  A
C1653      C1654   1.407       .  A
C1654      H1665   1.084       .  S
C1655      C1656   1.391       .  A
C1655      H1666   1.084       .  S
C1656      C1657   1.400       .  A
C1656      H1667   1.084       .  S
C1657      C1658   1.423       .  A
C1657      C1662   1.409       .  A
C1658      C1659   1.414       .  A
C1659      C1660   1.399       .  A
C1659      H1668   1.077       .  S
C1660      C1661   1.403       .  A
C1660      H1669   1.082       .  S
C1661      C1662   1.403       .  A
C1662      H1670   1.084       .  S
C1671      C1672   1.401       .  A
C1671      C1676   1.404       .  A
C1672      C1673   1.399       .  A
C1672      H1685   1.083       .  S
C1673      C1674   1.415       .  A
C1673      H1686   1.077       .  S
C1674      C1680   1.434       .  A
C1674      C1675   1.423       .  A
C1675      C1677   1.401       .  A
C1675      C1676   1.410       .  A
C1676      H1687   1.084       .  S
C1677      C1678   1.392       .  A
C1677      H1688   1.084       .  S
C1678      C1679   1.400       .  A
C1678      H1689   1.084       .  S
C1679      C1680   1.423       .  A
C1679      C1684   1.409       .  A
C1680      C1681   1.416       .  A
C1681      C1682   1.399       .  A
C1681      H1690   1.077       .  S
C1682      C1683   1.401       .  A
C1682      H1691   1.083       .  S
C1683      C1684   1.403       .  A
C1684      H1692   1.085       .  S
C1693      C1694   1.401       .  A
C1693      C1698   1.399       .  A
C1694      C1695   1.405       .  A
C1694      H1707   1.083       .  S
C1695      C1696   1.418   1_556  A
C1695      H1708   1.078   1_556  S
C1696      C1702   1.434       .  A
C1696      C1697   1.422       .  A
C1697      C1699   1.398       .  A
C1697      C1698   1.400   1_554  A
C1698      H1709   1.084       .  S
C1699      C1700   1.386       .  A
C1699      H1710   1.084       .  S
C1700      C1701   1.397       .  A
C1700      H1711   1.084       .  S
C1701      C1702   1.423       .  A
C1701      C1706   1.401       .  A
C1702      C1703   1.417       .  A
C1703      C1704   1.403       .  A
C1703      H1712   1.078       .  S
C1704      C1705   1.401       .  A
C1704      H1713   1.083       .  S
C1705      C1706   1.398       .  A
C1706      H1714   1.085       .  S
C1715      C1716   1.401   1_556  A
C1715      C1720   1.403   1_655  A
C1716      C1717   1.397       .  A
C1716      H1729   1.083       .  S
C1717      C1718   1.415   1_655  A
C1717      H1730   1.077       .  S
C1718      C1724   1.430       .  A
C1718      C1719   1.422       .  A
C1719      C1721   1.399       .  A
C1719      C1720   1.404   1_554  A
C1720      H1731   1.084       .  S
C1721      C1722   1.389       .  A
C1721      H1732   1.084       .  S
C1722      C1723   1.399       .  A
C1722      H1733   1.084       .  S
C1723      C1724   1.423       .  A
C1723      C1728   1.404       .  A
C1724      C1725   1.415       .  A
C1725      C1726   1.396       .  A
C1725      H1734   1.077   1_455  S
C1726      C1727   1.400       .  A
C1726      H1735   1.083       .  S
C1727      C1728   1.400       .  A
C1728      H1736   1.084       .  S
C1737      C1738   1.401       .  A
C1737      C1742   1.401       .  A
C1738      C1739   1.394       .  A
C1738      H1751   1.083       .  S
C1739      C1740   1.412       .  A
C1739      H1752   1.077       .  S
C1740      C1746   1.430       .  A
C1740      C1741   1.425       .  A
C1741      C1743   1.399       .  A
C1741      C1742   1.409       .  A
C1742      H1753   1.084       .  S
C1743      C1744   1.390       .  A
C1743      H1754   1.084       .  S
C1744      C1745   1.400       .  A
C1744      H1755   1.084       .  S
C1745      C1746   1.420       .  A
C1745      C1750   1.403       .  A
C1746      C1747   1.417       .  A
C1747      C1748   1.398       .  A
C1747      H1756   1.077       .  S
C1748      C1749   1.399       .  A
C1748      H1757   1.083       .  S
C1749      C1750   1.403       .  A
C1750      H1758   1.084       .  S
C1759      C1760   1.403       .  A
C1759      C1764   1.403       .  A
C1760      C1761   1.399       .  A
C1760      H1773   1.083       .  S
C1761      C1762   1.415   1_556  A
C1761      H1774   1.077   1_455  S
C1762      C1768   1.434       .  A
C1762      C1763   1.423       .  A
C1763      C1765   1.399       .  A
C1763      C1764   1.408   1_554  A
C1764      H1775   1.084       .  S
C1765      C1766   1.390       .  A
C1765      H1776   1.084       .  S
C1766      C1767   1.400       .  A
C1766      H1777   1.084       .  S
C1767      C1768   1.422       .  A
C1767      C1772   1.407       .  A
C1768      C1769   1.416   1_455  A
C1769      C1770   1.400       .  A
C1769      H1778   1.077       .  S
C1770      C1771   1.401       .  A
C1770      H1779   1.083       .  S
C1771      C1772   1.403   1_655  A
C1772      H1780   1.084       .  S
C1781      C1782   1.399   1_655  A
C1781      C1786   1.401       .  A
C1782      C1783   1.396       .  A
C1782      H1795   1.083       .  S
C1783      C1784   1.415       .  A
C1783      H1796   1.077       .  S
C1784      C1790   1.429       .  A
C1784      C1785   1.422   1_455  A
C1785      C1787   1.400       .  A
C1785      C1786   1.405       .  A
C1786      H1797   1.084       .  S
C1787      C1788   1.390       .  A
C1787      H1798   1.084       .  S
C1788      C1789   1.399   1_655  A
C1788      H1799   1.084       .  S
C1789      C1790   1.423       .  A
C1789      C1794   1.406       .  A
C1790      C1791   1.414       .  A
C1791      C1792   1.394       .  A
C1791      H1800   1.077       .  S
C1792      C1793   1.400       .  A
C1792      H1801   1.083       .  S
C1793      C1794   1.400       .  A
C1794      H1802   1.084       .  S
C1803      C1804   1.403       .  A
C1803      C1808   1.401       .  A
C1804      C1805   1.400       .  A
C1804      H1817   1.083       .  S
C1805      C1806   1.414       .  A
C1805      H1818   1.078       .  S
C1806      C1812   1.435       .  A
C1806      C1807   1.425       .  A
C1807      C1809   1.399       .  A
C1807      C1808   1.409       .  A
C1808      H1819   1.084       .  S
C1809      C1810   1.390       .  A
C1809      H1820   1.084       .  S
C1810      C1811   1.400       .  A
C1810      H1821   1.084       .  S
C1811      C1812   1.421       .  A
C1811      C1816   1.405       .  A
C1812      C1813   1.419       .  A
C1813      C1814   1.404       .  A
C1813      H1822   1.078       .  S
C1814      C1815   1.401       .  A
C1814      H1823   1.083       .  S
C1815      C1816   1.403       .  A
C1816      H1824   1.084       .  S
C1825      C1826   1.402       .  A
C1825      C1830   1.404       .  A
C1826      C1827   1.401       .  A
C1826      H1839   1.082       .  S
C1827      C1828   1.416       .  A
C1827      H1840   1.078       .  S
C1828      C1834   1.435       .  A
C1828      C1829   1.422       .  A
C1829      C1831   1.400       .  A
C1829      C1830   1.408       .  A
C1830      H1841   1.083   1_554  S
C1831      C1832   1.391       .  A
C1831      H1842   1.084       .  S
C1832      C1833   1.400       .  A
C1832      H1843   1.084       .  S
C1833      C1834   1.423       .  A
C1833      C1838   1.408       .  A
C1834      C1835   1.416       .  A
C1835      C1836   1.400       .  A
C1835      H1844   1.078       .  S
C1836      C1837   1.403       .  A
C1836      H1845   1.083       .  S
C1837      C1838   1.404       .  A
C1838      H1846   1.084       .  S
C1847      C1848   1.400       .  A
C1847      C1852   1.405       .  A
C1848      C1849   1.400       .  A
C1848      H1861   1.083       .  S
C1849      C1850   1.418       .  A
C1849      H1862   1.077       .  S
C1850      C1856   1.434       .  A
C1850      C1851   1.421       .  A
C1851      C1853   1.401       .  A
C1851      C1852   1.407       .  A
C1852      H1863   1.084       .  S
C1853      C1854   1.392       .  A
C1853      H1864   1.084       .  S
C1854      C1855   1.400       .  A
C1854      H1865   1.084       .  S
C1855      C1856   1.424       .  A
C1855      C1860   1.412       .  A
C1856      C1857   1.413       .  A
C1857      C1858   1.396       .  A
C1857      H1866   1.077       .  S
C1858      C1859   1.403       .  A
C1858      H1867   1.082       .  S
C1859      C1860   1.403       .  A
C1860      H1868   1.084       .  S
C1869      C1870   1.403       .  A
C1869      C1874   1.406       .  A
C1870      C1871   1.402       .  A
C1870      H1883   1.082       .  S
C1871      C1872   1.416       .  A
C1871      H1884   1.077       .  S
C1872      C1878   1.438       .  A
C1872      C1873   1.423       .  A
C1873      C1875   1.401       .  A
C1873      C1874   1.412       .  A
C1874      H1885   1.084       .  S
C1875      C1876   1.393       .  A
C1875      H1886   1.084       .  S
C1876      C1877   1.401       .  A
C1876      H1887   1.084       .  S
C1877      C1878   1.423       .  A
C1877      C1882   1.412       .  A
C1878      C1879   1.416       .  A
C1879      C1880   1.402       .  A
C1879      H1888   1.077       .  S
C1880      C1881   1.403       .  A
C1880      H1889   1.083       .  S
C1881      C1882   1.406       .  A
C1882      H1890   1.084       .  S
C1891      C1892   1.401       .  A
C1891      C1896   1.400       .  A
C1892      C1893   1.396       .  A
C1892      H1905   1.083       .  S
C1893      C1894   1.413       .  A
C1893      H1906   1.077       .  S
C1894      C1900   1.431       .  A
C1894      C1895   1.424       .  A
C1895      C1897   1.399       .  A
C1895      C1896   1.409       .  A
C1896      H1907   1.084       .  S
C1897      C1898   1.391       .  A
C1897      H1908   1.084       .  S
C1898      C1899   1.400       .  A
C1898      H1909   1.084       .  S
C1899      C1900   1.421       .  A
C1899      C1904   1.405       .  A
C1900      C1901   1.417       .  A
C1901      C1902   1.399       .  A
C1901      H1910   1.077       .  S
C1902      C1903   1.399       .  A
C1902      H1911   1.083       .  S
C1903      C1904   1.402       .  A
C1904      H1912   1.085       .  S
C1913      C1914   1.403       .  A
C1913      C1918   1.405       .  A
C1914      C1915   1.401       .  A
C1914      H1927   1.082       .  S
C1915      C1916   1.416       .  A
C1915      H1928   1.078       .  S
C1916      C1922   1.435       .  A
C1916      C1917   1.422       .  A
C1917      C1919   1.400       .  A
C1917      C1918   1.408       .  A
C1918      H1929   1.083       .  S
C1919      C1920   1.391       .  A
C1919      H1930   1.084       .  S
C1920      C1921   1.399       .  A
C1920      H1931   1.084       .  S
C1921      C1922   1.423       .  A
C1921      C1926   1.409       .  A
C1922      C1923   1.416       .  A
C1923      C1924   1.401       .  A
C1923      H1932   1.078       .  S
C1924      C1925   1.402       .  A
C1924      H1933   1.083       .  S
C1925      C1926   1.402       .  A
C1926      H1934   1.084       .  S
C1935      C1936   1.400       .  A
C1935      C1940   1.404       .  A
C1936      C1937   1.400       .  A
C1936      H1949   1.083       .  S
C1937      C1938   1.417       .  A
C1937      H1950   1.077       .  S
C1938      C1944   1.432       .  A
C1938      C1939   1.420       .  A
C1939      C1941   1.401       .  A
C1939      C1940   1.405       .  A
C1940      H1951   1.084       .  S
C1941      C1942   1.391       .  A
C1941      H1952   1.084       .  S
C1942      C1943   1.399       .  A
C1942      H1953   1.084       .  S
C1943      C1944   1.425       .  A
C1943      C1948   1.409       .  A
C1944      C1945   1.413       .  A
C1945      C1946   1.395       .  A
C1945      H1954   1.077       .  S
C1946      C1947   1.401       .  A
C1946      H1955   1.083       .  S
C1947      C1948   1.400       .  A
C1948      H1956   1.084       .  S
C1957      C1958   1.401       .  A
C1957      C1962   1.401       .  A
C1958      C1959   1.394       .  A
C1958      H1971   1.083       .  S
C1959      C1960   1.413   1_556  A
C1959      H1972   1.077   1_556  S
C1960      C1966   1.430       .  A
C1960      C1961   1.423   1_554  A
C1961      C1963   1.399       .  A
C1961      C1962   1.407       .  A
C1962      H1973   1.084       .  S
C1963      C1964   1.391   1_556  A
C1963      H1974   1.084       .  S
C1964      C1965   1.400       .  A
C1964      H1975   1.084       .  S
C1965      C1966   1.421       .  A
C1965      C1970   1.405       .  A
C1966      C1967   1.416       .  A
C1967      C1968   1.397       .  A
C1967      H1976   1.077       .  S
C1968      C1969   1.399       .  A
C1968      H1977   1.083       .  S
C1969      C1970   1.403       .  A
C1970      H1978   1.084       .  S
C1979      C1980   1.403       .  A
C1979      C1984   1.405       .  A
C1980      C1981   1.404       .  A
C1980      H1993   1.083       .  S
C1981      C1982   1.417       .  A
C1981      H1994   1.078       .  S
C1982      C1988   1.438       .  A
C1982      C1983   1.423       .  A
C1983      C1985   1.400       .  A
C1983      C1984   1.408       .  A
C1984      H1995   1.084       .  S
C1985      C1986   1.391       .  A
C1985      H1996   1.084       .  S
C1986      C1987   1.400       .  A
C1986      H1997   1.084       .  S
C1987      C1988   1.423       .  A
C1987      C1992   1.410       .  A
C1988      C1989   1.416       .  A
C1989      C1990   1.403       .  A
C1989      H1998   1.078       .  S
C1990      C1991   1.404   1_554  A
C1990      H1999   1.082       .  S
C1991      C1992   1.404   1_556  A
C1992      H2000   1.083   1_554  S
C2001      C2002   1.401       .  A
C2001      C2006   1.402       .  A
C2002      C2003   1.399       .  A
C2002      H2015   1.083       .  S
C2003      C2004   1.416       .  A
C2003      H2016   1.078   1_554  S
C2004      C2010   1.432       .  A
C2004      C2005   1.422       .  A
C2005      C2007   1.399       .  A
C2005      C2006   1.406       .  A
C2006      H2017   1.084       .  S
C2007      C2008   1.390       .  A
C2007      H2018   1.084       .  S
C2008      C2009   1.399       .  A
C2008      H2019   1.084       .  S
C2009      C2010   1.423       .  A
C2009      C2014   1.406       .  A
C2010      C2011   1.415   1_554  A
C2011      C2012   1.398       .  A
C2011      H2020   1.077       .  S
C2012      C2013   1.402       .  A
C2012      H2021   1.083       .  S
C2013      C2014   1.403   1_556  A
C2014      H2022   1.084       .  S
C2023      C2024   1.402       .  A
C2023      C2028   1.404   1_556  A
C2024      C2025   1.402       .  A
C2024      H2037   1.083       .  S
C2025      C2026   1.417   1_556  A
C2025      H2038   1.077       .  S
C2026      C2032   1.437       .  A
C2026      C2027   1.422       .  A
C2027      C2029   1.400       .  A
C2027      C2028   1.410       .  A
C2028      H2039   1.083       .  S
C2029      C2030   1.392       .  A
C2029      H2040   1.084       .  S
C2030      C2031   1.400       .  A
C2030      H2041   1.084       .  S
C2031      C2032   1.424       .  A
C2031      C2036   1.412       .  A
C2032      C2033   1.415       .  A
C2033      C2034   1.400       .  A
C2033      H2042   1.077   1_554  S
C2034      C2035   1.403       .  A
C2034      H2043   1.083       .  S
C2035      C2036   1.404       .  A
C2036      H2044   1.084       .  S
C2045      C2046   1.400   1_556  A
C2045      C2050   1.403       .  A
C2046      C2047   1.401       .  A
C2046      H2059   1.083       .  S
C2047      C2048   1.418       .  A
C2047      H2060   1.077       .  S
C2048      C2054   1.433       .  A
C2048      C2049   1.421   1_554  A
C2049      C2051   1.400       .  A
C2049      C2050   1.405       .  A
C2050      H2061   1.084       .  S
C2051      C2052   1.390       .  A
C2051      H2062   1.084       .  S
C2052      C2053   1.399   1_556  A
C2052      H2063   1.084       .  S
C2053      C2054   1.424       .  A
C2053      C2058   1.408       .  A
C2054      C2055   1.414       .  A
C2055      C2056   1.398       .  A
C2055      H2064   1.077       .  S
C2056      C2057   1.402       .  A
C2056      H2065   1.083       .  S
C2057      C2058   1.401       .  A
C2058      H2066   1.084       .  S
C2067      C2068   1.404       .  A
C2067      C2072   1.405       .  A
C2068      C2069   1.404       .  A
C2068      H2081   1.082       .  S
C2069      C2070   1.417       .  A
C2069      H2082   1.078       .  S
C2070      C2076   1.439       .  A
C2070      C2071   1.423       .  A
C2071      C2073   1.400       .  A
C2071      C2072   1.410       .  A
C2072      H2083   1.083       .  S
C2073      C2074   1.391       .  A
C2073      H2084   1.084       .  S
C2074      C2075   1.400       .  A
C2074      H2085   1.084       .  S
C2075      C2076   1.423       .  A
C2075      C2080   1.410       .  A
C2076      C2077   1.416       .  A
C2077      C2078   1.403       .  A
C2077      H2086   1.078       .  S
C2078      C2079   1.404       .  A
C2078      H2087   1.083       .  S
C2079      C2080   1.404       .  A
C2080      H2088   1.084       .  S
C2089      C2090   1.403       .  A
C2089      C2094   1.405       .  A
C2090      C2091   1.401       .  A
C2090      H2103   1.082       .  S
C2091      C2092   1.416       .  A
C2091      H2104   1.077       .  S
C2092      C2098   1.436       .  A
C2092      C2093   1.422       .  A
C2093      C2095   1.400       .  A
C2093      C2094   1.409       .  A
C2094      H2105   1.083       .  S
C2095      C2096   1.391       .  A
C2095      H2106   1.084       .  S
C2096      C2097   1.400       .  A
C2096      H2107   1.084       .  S
C2097      C2098   1.423       .  A
C2097      C2102   1.408       .  A
C2098      C2099   1.417       .  A
C2099      C2100   1.401       .  A
C2099      H2108   1.077       .  S
C2100      C2101   1.401       .  A
C2100      H2109   1.083       .  S
C2101      C2102   1.403       .  A
C2102      H2110   1.084       .  S
C2111      C2112   1.403       .  A
C2111      C2116   1.400       .  A
C2112      C2113   1.398       .  A
C2112      H2125   1.083       .  S
C2113      C2114   1.413       .  A
C2113      H2126   1.078       .  S
C2114      C2120   1.433       .  A
C2114      C2115   1.424       .  A
C2115      C2117   1.398       .  A
C2115      C2116   1.407       .  A
C2116      H2127   1.084       .  S
C2117      C2118   1.388       .  A
C2117      H2128   1.084       .  S
C2118      C2119   1.399       .  A
C2118      H2129   1.084       .  S
C2119      C2120   1.421       .  A
C2119      C2124   1.402       .  A
C2120      C2121   1.418       .  A
C2121      C2122   1.402       .  A
C2121      H2130   1.078       .  S
C2122      C2123   1.400       .  A
C2122      H2131   1.083       .  S
C2123      C2124   1.402       .  A
C2124      H2132   1.084       .  S
C2133      C2134   1.401       .  A
C2133      C2138   1.400       .  A
C2134      C2135   1.403       .  A
C2134      H2147   1.083       .  S
C2135      C2136   1.417       .  A
C2135      H2148   1.078       .  S
C2136      C2142   1.434       .  A
C2136      C2137   1.423       .  A
C2137      C2139   1.398       .  A
C2137      C2138   1.402       .  A
C2138      H2149   1.084       .  S
C2139      C2140   1.387       .  A
C2139      H2150   1.084       .  S
C2140      C2141   1.398       .  A
C2140      H2151   1.084       .  S
C2141      C2142   1.422       .  A
C2141      C2146   1.402       .  A
C2142      C2143   1.418       .  A
C2143      C2144   1.404       .  A
C2143      H2152   1.078       .  S
C2144      C2145   1.400   1_545  A
C2144      H2153   1.083   1_545  S
C2145      C2146   1.400   1_565  A
C2146      H2154   1.085   1_545  S
C2155      C2156   1.402       .  A
C2155      C2160   1.403       .  A
C2156      C2157   1.400       .  A
C2156      H2169   1.083       .  S
C2157      C2158   1.415       .  A
C2157      H2170   1.077       .  S
C2158      C2164   1.435       .  A
C2158      C2159   1.423       .  A
C2159      C2161   1.400       .  A
C2159      C2160   1.410       .  A
C2160      H2171   1.084       .  S
C2161      C2162   1.392       .  A
C2161      H2172   1.084       .  S
C2162      C2163   1.400       .  A
C2162      H2173   1.084       .  S
C2163      C2164   1.422       .  A
C2163      C2168   1.409       .  A
C2164      C2165   1.416       .  A
C2165      C2166   1.400       .  A
C2165      H2174   1.077       .  S
C2166      C2167   1.403       .  A
C2166      H2175   1.083       .  S
C2167      C2168   1.405       .  A
C2168      H2176   1.084       .  S
C2177      C2178   1.399       .  A
C2177      C2182   1.404       .  A
C2178      C2179   1.401       .  A
C2178      H2191   1.083       .  S
C2179      C2180   1.418       .  A
C2179      H2192   1.077       .  S
C2180      C2186   1.433       .  A
C2180      C2181   1.420       .  A
C2181      C2183   1.400       .  A
C2181      C2182   1.404       .  A
C2182      H2193   1.084       .  S
C2183      C2184   1.390       .  A
C2183      H2194   1.084       .  S
C2184      C2185   1.399       .  A
C2184      H2195   1.084       .  S
C2185      C2186   1.424       .  A
C2185      C2190   1.409       .  A
C2186      C2187   1.412       .  A
C2187      C2188   1.396       .  A
C2187      H2196   1.077       .  S
C2188      C2189   1.403       .  A
C2188      H2197   1.082       .  S
C2189      C2190   1.402       .  A
C2190      H2198   1.084       .  S
C2199      C2200   1.403       .  A
C2199      C2204   1.403       .  A
C2200      C2201   1.402       .  A
C2200      H2213   1.082       .  S
C2201      C2202   1.416       .  A
C2201      H2214   1.077       .  S
C2202      C2208   1.435       .  A
C2202      C2203   1.422       .  A
C2203      C2205   1.400       .  A
C2203      C2204   1.407       .  A
C2204      H2215   1.083       .  S
C2205      C2206   1.390       .  A
C2205      H2216   1.084       .  S
C2206      C2207   1.399       .  A
C2206      H2217   1.084       .  S
C2207      C2208   1.424       .  A
C2207      C2212   1.409       .  A
C2208      C2209   1.414       .  A
C2209      C2210   1.399       .  A
C2209      H2218   1.077       .  S
C2210      C2211   1.404       .  A
C2210      H2219   1.083       .  S
C2211      C2212   1.403       .  A
C2212      H2220   1.084       .  S
C2221      C2222   1.401       .  A
C2221      C2226   1.399       .  A
C2222      C2223   1.392       .  A
C2222      H2235   1.083       .  S
C2223      C2224   1.411       .  A
C2223      H2236   1.077       .  S
C2224      C2230   1.429       .  A
C2224      C2225   1.425       .  A
C2225      C2227   1.399       .  A
C2225      C2226   1.408       .  A
C2226      H2237   1.084       .  S
C2227      C2228   1.390   1_545  A
C2227      H2238   1.084   1_545  S
C2228      C2229   1.401   1_565  A
C2228      H2239   1.084       .  S
C2229      C2230   1.419       .  A
C2229      C2234   1.402       .  A
C2230      C2231   1.418       .  A
C2231      C2232   1.398       .  A
C2231      H2240   1.077       .  S
C2232      C2233   1.399       .  A
C2232      H2241   1.083       .  S
C2233      C2234   1.404       .  A
C2234      H2242   1.083   1_545  S
C2243      C2244   1.402       .  A
C2243      C2248   1.402       .  A
C2244      C2245   1.400       .  A
C2244      H2257   1.083       .  S
C2245      C2246   1.416       .  A
C2245      H2258   1.077       .  S
C2246      C2252   1.434       .  A
C2246      C2247   1.423       .  A
C2247      C2249   1.399       .  A
C2247      C2248   1.406       .  A
C2248      H2259   1.084       .  S
C2249      C2250   1.389       .  A
C2249      H2260   1.084       .  S
C2250      C2251   1.400       .  A
C2250      H2261   1.084       .  S
C2251      C2252   1.422       .  A
C2251      C2256   1.406       .  A
C2252      C2253   1.416       .  A
C2253      C2254   1.401       .  A
C2253      H2262   1.078       .  S
C2254      C2255   1.402       .  A
C2254      H2263   1.083       .  S
C2255      C2256   1.403       .  A
C2256      H2264   1.083       .  S
C2265      C2266   1.402       .  A
C2265      C2270   1.406       .  A
C2266      C2267   1.401       .  A
C2266      H2279   1.082       .  S
C2267      C2268   1.417       .  A
C2267      H2280   1.077       .  S
C2268      C2274   1.433       .  A
C2268      C2269   1.420       .  A
C2269      C2271   1.400       .  A
C2269      C2270   1.404       .  A
C2270      H2281   1.082       .  S
C2271      C2272   1.389       .  A
C2271      H2282   1.084       .  S
C2272      C2273   1.398       .  A
C2272      H2283   1.084       .  S
C2273      C2274   1.425       .  A
C2273      C2278   1.408       .  A
C2274      C2275   1.414       .  A
C2275      C2276   1.398       .  A
C2275      H2284   1.077       .  S
C2276      C2277   1.401       .  A
C2276      H2285   1.083       .  S
C2277      C2278   1.399       .  A
C2278      H2286   1.084       .  S
C2287      C2288   1.403       .  A
C2287      C2292   1.406       .  A
C2288      C2289   1.401       .  A
C2288      H2301   1.082       .  S
C2289      C2290   1.415       .  A
C2289      H2302   1.077       .  S
C2290      C2296   1.436       .  A
C2290      C2291   1.422       .  A
C2291      C2293   1.400       .  A
C2291      C2292   1.409       .  A
C2292      H2303   1.083       .  S
C2293      C2294   1.391       .  A
C2293      H2304   1.084       .  S
C2294      C2295   1.399       .  A
C2294      H2305   1.084       .  S
C2295      C2296   1.423       .  A
C2295      C2300   1.408       .  A
C2296      C2297   1.417       .  A
C2297      C2298   1.401       .  A
C2297      H2306   1.077       .  S
C2298      C2299   1.401       .  A
C2298      H2307   1.083       .  S
C2299      C2300   1.402       .  A
C2300      H2308   1.085       .  S
C2309      C2310   1.400       .  A
C2309      C2314   1.406       .  A
C2310      C2311   1.401       .  A
C2310      H2323   1.083       .  S
C2311      C2312   1.418       .  A
C2311      H2324   1.078       .  S
C2312      C2318   1.433       .  A
C2312      C2313   1.420       .  A
C2313      C2315   1.401       .  A
C2313      C2314   1.406       .  A
C2314      H2325   1.084       .  S
C2315      C2316   1.392       .  A
C2315      H2326   1.084       .  S
C2316      C2317   1.399       .  A
C2316      H2327   1.084       .  S
C2317      C2318   1.426       .  A
C2317      C2322   1.412       .  A
C2318      C2319   1.412       .  A
C2319      C2320   1.395       .  A
C2319      H2328   1.077       .  S
C2320      C2321   1.402       .  A
C2320      H2329   1.083       .  S
C2321      C2322   1.401       .  A
C2322      H2330   1.084       .  S
C2331      C2332   1.397       .  A
C2331      C2336   1.402       .  A
C2332      C2333   1.390   1_565  A
C2332      H2345   1.084       .  S
C2333      C2334   1.414       .  A
C2333      H2346   1.077       .  S
C2334      C2340   1.429       .  A
C2334      C2335   1.423       .  A
C2335      C2337   1.401       .  A
C2335      C2336   1.412   1_545  A
C2336      H2347   1.084       .  S
C2337      C2338   1.395       .  A
C2337      H2348   1.084       .  S
C2338      C2339   1.401       .  A
C2338      H2349   1.084       .  S
C2339      C2340   1.423       .  A
C2339      C2344   1.412       .  A
C2340      C2341   1.413       .  A
C2341      C2342   1.390       .  A
C2341      H2350   1.077       .  S
C2342      C2343   1.398       .  A
C2342      H2351   1.083       .  S
C2343      C2344   1.403       .  A
C2344      H2352   1.084       .  S
C2353      C2354   1.400       .  A
C2353      C2358   1.402       .  A
C2354      C2355   1.397       .  A
C2354      H2367   1.083       .  S
C2355      C2356   1.415       .  A
C2355      H2368   1.077       .  S
C2356      C2362   1.432       .  A
C2356      C2357   1.422       .  A
C2357      C2359   1.400       .  A
C2357      C2358   1.406       .  A
C2358      H2369   1.084       .  S
C2359      C2360   1.391       .  A
C2359      H2370   1.084       .  S
C2360      C2361   1.399       .  A
C2360      H2371   1.084       .  S
C2361      C2362   1.423       .  A
C2361      C2366   1.407       .  A
C2362      C2363   1.415       .  A
C2363      C2364   1.397       .  A
C2363      H2372   1.077       .  S
C2364      C2365   1.401       .  A
C2364      H2373   1.083       .  S
C2365      C2366   1.402       .  A
C2366      H2374   1.084       .  S
C2375      C2376   1.402       .  A
C2375      C2380   1.402       .  A
C2376      C2377   1.400       .  A
C2376      H2389   1.083       .  S
C2377      C2378   1.416       .  A
C2377      H2390   1.078       .  S
C2378      C2384   1.434       .  A
C2378      C2379   1.422       .  A
C2379      C2381   1.399       .  A
C2379      C2380   1.406       .  A
C2380      H2391   1.084       .  S
C2381      C2382   1.390       .  A
C2381      H2392   1.084       .  S
C2382      C2383   1.399       .  A
C2382      H2393   1.084       .  S
C2383      C2384   1.423       .  A
C2383      C2388   1.408       .  A
C2384      C2385   1.415       .  A
C2385      C2386   1.400       .  A
C2385      H2394   1.078       .  S
C2386      C2387   1.402       .  A
C2386      H2395   1.083       .  S
C2387      C2388   1.402       .  A
C2388      H2396   1.084       .  S
C2397      C2398   1.400       .  A
C2397      C2402   1.401       .  A
C2398      C2399   1.395       .  A
C2398      H2411   1.083       .  S
C2399      C2400   1.413       .  A
C2399      H2412   1.077       .  S
C2400      C2406   1.430       .  A
C2400      C2401   1.424       .  A
C2401      C2403   1.400       .  A
C2401      C2402   1.408       .  A
C2402      H2413   1.084       .  S
C2403      C2404   1.391       .  A
C2403      H2414   1.084       .  S
C2404      C2405   1.400       .  A
C2404      H2415   1.084       .  S
C2405      C2406   1.421       .  A
C2405      C2410   1.405       .  A
C2406      C2407   1.416       .  A
C2407      C2408   1.397       .  A
C2407      H2416   1.077       .  S
C2408      C2409   1.398       .  A
C2408      H2417   1.083       .  S
C2409      C2410   1.402       .  A
C2410      H2418   1.084       .  S
C2419      C2420   1.402       .  A
C2419      C2424   1.407       .  A
C2420      C2421   1.400       .  A
C2420      H2433   1.082       .  S
C2421      C2422   1.415       .  A
C2421      H2434   1.077       .  S
C2422      C2428   1.436       .  A
C2422      C2423   1.422       .  A
C2423      C2425   1.401       .  A
C2423      C2424   1.411       .  A
C2424      H2435   1.083       .  S
C2425      C2426   1.393       .  A
C2425      H2436   1.084       .  S
C2426      C2427   1.400       .  A
C2426      H2437   1.084       .  S
C2427      C2428   1.423       .  A
C2427      C2432   1.411       .  A
C2428      C2429   1.416       .  A
C2429      C2430   1.400       .  A
C2429      H2438   1.077       .  S
C2430      C2431   1.401       .  A
C2430      H2439   1.083       .  S
C2431      C2432   1.404       .  A
C2432      H2440   1.084       .  S
C2441      C2442   1.403       .  A
C2441      C2446   1.408       .  A
C2442      C2443   1.397       .  A
C2442      H2455   1.082       .  S
C2443      C2444   1.414       .  A
C2443      H2456   1.077       .  S
C2444      C2450   1.435       .  A
C2444      C2445   1.422       .  A
C2445      C2447   1.401       .  A
C2445      C2446   1.412       .  A
C2446      H2457   1.084       .  S
C2447      C2448   1.394       .  A
C2447      H2458   1.084       .  S
C2448      C2449   1.401       .  A
C2448      H2459   1.084       .  S
C2449      C2450   1.423       .  A
C2449      C2454   1.412       .  A
C2450      C2451   1.415       .  A
C2451      C2452   1.398       .  A
C2451      H2460   1.077       .  S
C2452      C2453   1.401       .  A
C2452      H2461   1.083       .  S
C2453      C2454   1.405       .  A
C2454      H2462   1.084       .  S
C2463      C2464   1.400       .  A
C2463      C2468   1.404       .  A
C2464      C2465   1.402       .  A
C2464      H2477   1.083       .  S
C2465      C2466   1.418       .  A
C2465      H2478   1.077       .  S
C2466      C2472   1.434       .  A
C2466      C2467   1.421       .  A
C2467      C2469   1.400       .  A
C2467      C2468   1.405       .  A
C2468      H2479   1.084       .  S
C2469      C2470   1.390       .  A
C2469      H2480   1.084       .  S
C2470      C2471   1.399       .  A
C2470      H2481   1.084       .  S
C2471      C2472   1.425       .  A
C2471      C2476   1.409       .  A
C2472      C2473   1.414       .  A
C2473      C2474   1.398       .  A
C2473      H2482   1.077       .  S
C2474      C2475   1.401       .  A
C2474      H2483   1.084       .  S
C2475      C2476   1.399       .  A
C2476      H2484   1.085       .  S
C2485      C2486   1.398       .  A
C2485      C2490   1.402       .  A
C2486      C2487   1.398       .  A
C2486      H2499   1.083       .  S
C2487      C2488   1.417       .  A
C2487      H2500   1.077       .  S
C2488      C2494   1.431       .  A
C2488      C2489   1.421       .  A
C2489      C2491   1.400       .  A
C2489      C2490   1.406       .  A
C2490      H2501   1.085       .  S
C2491      C2492   1.391       .  A
C2491      H2502   1.084       .  S
C2492      C2493   1.400       .  A
C2492      H2503   1.084       .  S
C2493      C2494   1.423       .  A
C2493      C2498   1.408       .  A
C2494      C2495   1.413       .  A
C2495      C2496   1.395       .  A
C2495      H2504   1.077       .  S
C2496      C2497   1.402       .  A
C2496      H2505   1.082       .  S
C2497      C2498   1.401       .  A
C2498      H2506   1.084       .  S
C2507      C2508   1.401       .  A
C2507      C2512   1.406   1_655  A
C2508      C2509   1.400       .  A
C2508      H2521   1.083       .  S
C2509      C2510   1.416   1_655  A
C2509      H2522   1.077       .  S
C2510      C2516   1.436       .  A
C2510      C2511   1.422       .  A
C2511      C2513   1.401       .  A
C2511      C2512   1.411       .  A
C2512      H2523   1.084       .  S
C2513      C2514   1.393       .  A
C2513      H2524   1.084       .  S
C2514      C2515   1.401       .  A
C2514      H2525   1.084       .  S
C2515      C2516   1.423       .  A
C2515      C2520   1.413       .  A
C2516      C2517   1.414       .  A
C2517      C2518   1.399       .  A
C2517      H2526   1.077   1_455  S
C2518      C2519   1.404       .  A
C2518      H2527   1.083       .  S
C2519      C2520   1.406       .  A
C2520      H2528   1.084       .  S
C2529      C2530   1.402   1_655  A
C2529      C2534   1.404       .  A
C2530      C2531   1.399       .  A
C2530      H2543   1.083       .  S
C2531      C2532   1.415       .  A
C2531      H2544   1.077       .  S
C2532      C2538   1.435       .  A
C2532      C2533   1.423   1_455  A
C2533      C2535   1.400       .  A
C2533      C2534   1.411       .  A
C2534      H2545   1.084       .  S
C2535      C2536   1.393       .  A
C2535      H2546   1.084       .  S
C2536      C2537   1.401   1_655  A
C2536      H2547   1.084       .  S
C2537      C2538   1.422       .  A
C2537      C2542   1.410       .  A
C2538      C2539   1.415       .  A
C2539      C2540   1.399       .  A
C2539      H2548   1.077       .  S
C2540      C2541   1.403       .  A
C2540      H2549   1.082       .  S
C2541      C2542   1.406       .  A
C2542      H2550   1.083       .  S
C2551      C2552   1.400       .  A
C2551      C2556   1.399       .  A
C2552      C2553   1.395       .  A
C2552      H2565   1.083       .  S
C2553      C2554   1.413       .  A
C2553      H2566   1.077       .  S
C2554      C2560   1.430       .  A
C2554      C2555   1.425       .  A
C2555      C2557   1.399       .  A
C2555      C2556   1.408       .  A
C2556      H2567   1.085       .  S
C2557      C2558   1.390       .  A
C2557      H2568   1.084       .  S
C2558      C2559   1.400       .  A
C2558      H2569   1.084       .  S
C2559      C2560   1.420       .  A
C2559      C2564   1.403       .  A
C2560      C2561   1.417       .  A
C2561      C2562   1.399       .  A
C2561      H2570   1.078       .  S
C2562      C2563   1.399       .  A
C2562      H2571   1.083       .  S
C2563      C2564   1.402       .  A
C2564      H2572   1.085       .  S
C2573      C2574   1.400       .  A
C2573      C2578   1.398       .  A
C2574      C2575   1.397       .  A
C2574      H2587   1.083       .  S
C2575      C2576   1.414       .  A
C2575      H2588   1.078       .  S
C2576      C2582   1.432       .  A
C2576      C2577   1.425       .  A
C2577      C2579   1.398   1_455  A
C2577      C2578   1.406       .  A
C2578      H2589   1.085       .  S
C2579      C2580   1.388       .  A
C2579      H2590   1.084       .  S
C2580      C2581   1.400       .  A
C2580      H2591   1.084       .  S
C2581      C2582   1.420   1_655  A
C2581      C2586   1.403       .  A
C2582      C2583   1.417       .  A
C2583      C2584   1.400       .  A
C2583      H2592   1.078       .  S
C2584      C2585   1.402   1_455  A
C2584      H2593   1.082       .  S
C2585      C2586   1.405       .  A
C2586      H2594   1.082       .  S
C2595      C2596   1.403       .  A
C2595      C2600   1.406       .  A
C2596      C2597   1.398       .  A
C2596      H2609   1.082       .  S
C2597      C2598   1.413       .  A
C2597      H2610   1.077       .  S
C2598      C2604   1.436       .  A
C2598      C2599   1.424       .  A
C2599      C2601   1.401       .  A
C2599      C2600   1.415       .  A
C2600      H2611   1.084       .  S
C2601      C2602   1.395       .  A
C2601      H2612   1.084       .  S
C2602      C2603   1.402       .  A
C2602      H2613   1.084       .  S
C2603      C2604   1.422       .  A
C2603      C2608   1.412       .  A
C2604      C2605   1.417       .  A
C2605      C2606   1.400       .  A
C2605      H2614   1.077       .  S
C2606      C2607   1.401       .  A
C2606      H2615   1.083       .  S
C2607      C2608   1.408       .  A
C2608      H2616   1.084       .  S
C2617      C2618   1.400       .  A
C2617      C2622   1.407       .  A
C2618      C2619   1.402       .  A
C2618      H2631   1.082       .  S
C2619      C2620   1.418       .  A
C2619      H2632   1.077       .  S
C2620      C2626   1.435       .  A
C2620      C2621   1.420       .  A
C2621      C2623   1.401       .  A
C2621      C2622   1.407       .  A
C2622      H2633   1.083       .  S
C2623      C2624   1.392       .  A
C2623      H2634   1.084       .  S
C2624      C2625   1.399       .  A
C2624      H2635   1.084       .  S
C2625      C2626   1.425       .  A
C2625      C2630   1.411       .  A
C2626      C2627   1.414       .  A
C2627      C2628   1.397       .  A
C2627      H2636   1.077       .  S
C2628      C2629   1.401       .  A
C2628      H2637   1.084       .  S
C2629      C2630   1.401       .  A
C2630      H2638   1.084       .  S
C2639      C2640   1.402       .  A
C2639      C2644   1.405       .  A
C2640      C2641   1.402       .  A
C2640      H2653   1.082       .  S
C2641      C2642   1.417       .  A
C2641      H2654   1.078       .  S
C2642      C2648   1.436       .  A
C2642      C2643   1.422       .  A
C2643      C2645   1.400       .  A
C2643      C2644   1.408       .  A
C2644      H2655   1.083       .  S
C2645      C2646   1.391       .  A
C2645      H2656   1.084       .  S
C2646      C2647   1.399       .  A
C2646      H2657   1.084       .  S
C2647      C2648   1.424       .  A
C2647      C2652   1.409       .  A
C2648      C2649   1.415       .  A
C2649      C2650   1.400       .  A
C2649      H2658   1.078       .  S
C2650      C2651   1.403       .  A
C2650      H2659   1.083       .  S
C2651      C2652   1.403       .  A
C2652      H2660   1.084       .  S
C2661      C2662   1.402       .  A
C2661      C2666   1.401       .  A
C2662      C2663   1.397       .  A
C2662      H2675   1.083       .  S
C2663      C2664   1.414       .  A
C2663      H2676   1.077       .  S
C2664      C2670   1.435       .  A
C2664      C2665   1.425       .  A
C2665      C2667   1.399       .  A
C2665      C2666   1.411       .  A
C2666      H2677   1.084       .  S
C2667      C2668   1.391       .  A
C2667      H2678   1.084       .  S
C2668      C2669   1.401       .  A
C2668      H2679   1.084       .  S
C2669      C2670   1.420       .  A
C2669      C2674   1.407       .  A
C2670      C2671   1.418       .  A
C2671      C2672   1.402       .  A
C2671      H2680   1.077       .  S
C2672      C2673   1.401       .  A
C2672      H2681   1.082       .  S
C2673      C2674   1.406       .  A
C2674      H2682   1.083       .  S
C2683      C2684   1.401       .  A
C2683      C2688   1.401       .  A
C2684      C2685   1.397       .  A
C2684      H2697   1.083       .  S
C2685      C2686   1.414       .  A
C2685      H2698   1.077       .  S
C2686      C2692   1.433       .  A
C2686      C2687   1.424       .  A
C2687      C2689   1.399       .  A
C2687      C2688   1.408       .  A
C2688      H2699   1.084       .  S
C2689      C2690   1.390       .  A
C2689      H2700   1.084       .  S
C2690      C2691   1.400       .  A
C2690      H2701   1.084       .  S
C2691      C2692   1.421       .  A
C2691      C2696   1.404       .  A
C2692      C2693   1.418       .  A
C2693      C2694   1.401       .  A
C2693      H2702   1.077       .  S
C2694      C2695   1.399       .  A
C2694      H2703   1.083       .  S
C2695      C2696   1.403       .  A
C2696      H2704   1.084       .  S
C2705      C2706   1.399       .  A
C2705      C2710   1.400       .  A
C2706      C2707   1.399       .  A
C2706      H2719   1.083       .  S
C2707      C2708   1.416       .  A
C2707      H2720   1.077       .  S
C2708      C2714   1.432       .  A
C2708      C2709   1.423       .  A
C2709      C2711   1.399       .  A
C2709      C2710   1.406       .  A
C2710      H2721   1.085       .  S
C2711      C2712   1.390       .  A
C2711      H2722   1.084       .  S
C2712      C2713   1.400       .  A
C2712      H2723   1.084   1_545  S
C2713      C2714   1.422       .  A
C2713      C2718   1.406       .  A
C2714      C2715   1.415       .  A
C2715      C2716   1.399       .  A
C2715      H2724   1.077       .  S
C2716      C2717   1.402       .  A
C2716      H2725   1.082       .  S
C2717      C2718   1.403       .  A
C2718      H2726   1.083   1_545  S
C2727      C2728   1.402       .  A
C2727      C2732   1.405       .  A
C2728      C2729   1.399       .  A
C2728      H2741   1.083       .  S
C2729      C2730   1.415       .  A
C2729      H2742   1.077       .  S
C2730      C2736   1.437       .  A
C2730      C2731   1.423       .  A
C2731      C2733   1.401       .  A
C2731      C2732   1.414       .  A
C2732      H2743   1.084       .  S
C2733      C2734   1.394       .  A
C2733      H2744   1.084       .  S
C2734      C2735   1.402       .  A
C2734      H2745   1.084       .  S
C2735      C2736   1.422       .  A
C2735      C2740   1.413       .  A
C2736      C2737   1.415       .  A
C2737      C2738   1.400       .  A
C2737      H2746   1.077       .  S
C2738      C2739   1.403       .  A
C2738      H2747   1.083   1_545  S
C2739      C2740   1.408       .  A
C2740      H2748   1.084       .  S
C2749      C2750   1.399       .  A
C2749      C2754   1.402       .  A
C2750      C2751   1.393       .  A
C2750      H2763   1.083       .  S
C2751      C2752   1.414       .  A
C2751      H2764   1.076       .  S
C2752      C2758   1.430       .  A
C2752      C2753   1.423       .  A
C2753      C2755   1.400       .  A
C2753      C2754   1.410       .  A
C2754      H2765   1.084       .  S
C2755      C2756   1.393       .  A
C2755      H2766   1.084       .  S
C2756      C2757   1.400       .  A
C2756      H2767   1.084       .  S
C2757      C2758   1.423       .  A
C2757      C2762   1.409       .  A
C2758      C2759   1.414       .  A
C2759      C2760   1.394       .  A
C2759      H2768   1.076       .  S
C2760      C2761   1.399       .  A
C2760      H2769   1.083       .  S
C2761      C2762   1.402       .  A
C2762      H2770   1.084       .  S
C2771      C2772   1.402       .  A
C2771      C2776   1.404       .  A
C2772      C2773   1.401       .  A
C2772      H2785   1.083       .  S
C2773      C2774   1.416       .  A
C2773      H2786   1.078       .  S
C2774      C2780   1.438       .  A
C2774      C2775   1.423       .  A
C2775      C2777   1.401       .  A
C2775      C2776   1.413       .  A
C2776      H2787   1.084       .  S
C2777      C2778   1.394       .  A
C2777      H2788   1.084       .  S
C2778      C2779   1.401       .  A
C2778      H2789   1.084       .  S
C2779      C2780   1.423       .  A
C2779      C2784   1.413       .  A
C2780      C2781   1.415       .  A
C2781      C2782   1.401       .  A
C2781      H2790   1.078       .  S
C2782      C2783   1.404       .  A
C2782      H2791   1.082       .  S
C2783      C2784   1.406       .  A
C2784      H2792   1.084       .  S
C2793      C2794   1.401       .  A
C2793      C2798   1.403       .  A
C2794      C2795   1.400       .  A
C2794      H2807   1.083       .  S
C2795      C2796   1.416       .  A
C2795      H2808   1.077       .  S
C2796      C2802   1.434       .  A
C2796      C2797   1.422       .  A
C2797      C2799   1.400       .  A
C2797      C2798   1.408       .  A
C2798      H2809   1.084       .  S
C2799      C2800   1.390       .  A
C2799      H2810   1.084       .  S
C2800      C2801   1.400       .  A
C2800      H2811   1.084       .  S
C2801      C2802   1.423       .  A
C2801      C2806   1.408       .  A
C2802      C2803   1.415       .  A
C2803      C2804   1.399       .  A
C2803      H2812   1.077       .  S
C2804      C2805   1.403       .  A
C2804      H2813   1.083       .  S
C2805      C2806   1.404       .  A
C2806      H2814   1.084       .  S
C2815      C2816   1.403       .  A
C2815      C2820   1.400       .  A
C2816      C2817   1.399       .  A
C2816      H2829   1.083       .  S
C2817      C2818   1.414       .  A
C2817      H2830   1.078       .  S
C2818      C2824   1.434       .  A
C2818      C2819   1.425       .  A
C2819      C2821   1.398       .  A
C2819      C2820   1.407       .  A
C2820      H2831   1.084       .  S
C2821      C2822   1.389       .  A
C2821      H2832   1.084       .  S
C2822      C2823   1.399       .  A
C2822      H2833   1.084       .  S
C2823      C2824   1.421       .  A
C2823      C2828   1.403       .  A
C2824      C2825   1.418       .  A
C2825      C2826   1.403       .  A
C2825      H2834   1.078       .  S
C2826      C2827   1.401       .  A
C2826      H2835   1.083       .  S
C2827      C2828   1.403       .  A
C2828      H2836   1.084       .  S
C2837      C2838   1.402       .  A
C2837      C2842   1.401       .  A
C2838      C2839   1.397       .  A
C2838      H2851   1.083       .  S
C2839      C2840   1.413       .  A
C2839      H2852   1.077       .  S
C2840      C2846   1.433       .  A
C2840      C2841   1.425       .  A
C2841      C2843   1.400       .  A
C2841      C2842   1.411       .  A
C2842      H2853   1.084       .  S
C2843      C2844   1.391       .  A
C2843      H2854   1.084       .  S
C2844      C2845   1.400       .  A
C2844      H2855   1.084       .  S
C2845      C2846   1.421       .  A
C2845      C2850   1.407       .  A
C2846      C2847   1.417       .  A
C2847      C2848   1.400       .  A
C2847      H2856   1.077       .  S
C2848      C2849   1.400       .  A
C2848      H2857   1.083       .  S
C2849      C2850   1.404       .  A
C2850      H2858   1.084       .  S
C2859      C2860   1.401       .  A
C2859      C2864   1.404       .  A
C2860      C2861   1.395       .  A
C2860      H2873   1.083       .  S
C2861      C2862   1.414       .  A
C2861      H2874   1.077       .  S
C2862      C2868   1.434       .  A
C2862      C2863   1.424       .  A
C2863      C2865   1.401       .  A
C2863      C2864   1.413       .  A
C2864      H2875   1.084       .  S
C2865      C2866   1.394       .  A
C2865      H2876   1.084       .  S
C2866      C2867   1.402       .  A
C2866      H2877   1.084       .  S
C2867      C2868   1.421       .  A
C2867      C2872   1.410       .  A
C2868      C2869   1.416       .  A
C2869      C2870   1.398       .  A
C2869      H2878   1.077       .  S
C2870      C2871   1.401       .  A
C2870      H2879   1.082       .  S
C2871      C2872   1.407       .  A
C2872      H2880   1.083       .  S
C2881      C2882   1.399       .  A
C2881      C2886   1.401       .  A
C2882      C2883   1.399       .  A
C2882      H2895   1.083       .  S
C2883      C2884   1.417       .  A
C2883      H2896   1.077       .  S
C2884      C2890   1.431       .  A
C2884      C2885   1.421       .  A
C2885      C2887   1.399       .  A
C2885      C2886   1.403       .  A
C2886      H2897   1.084       .  S
C2887      C2888   1.389       .  A
C2887      H2898   1.084       .  S
C2888      C2889   1.399       .  A
C2888      H2899   1.084       .  S
C2889      C2890   1.424       .  A
C2889      C2894   1.406       .  A
C2890      C2891   1.414       .  A
C2891      C2892   1.396       .  A
C2891      H2900   1.077       .  S
C2892      C2893   1.401       .  A
C2892      H2901   1.083       .  S
C2893      C2894   1.401       .  A
C2894      H2902   1.084       .  S
C2903      C2904   1.403       .  A
C2903      C2908   1.405       .  A
C2904      C2905   1.401       .  A
C2904      H2917   1.083       .  S
C2905      C2906   1.416       .  A
C2905      H2918   1.077       .  S
C2906      C2912   1.437       .  A
C2906      C2907   1.423       .  A
C2907      C2909   1.401       .  A
C2907      C2908   1.412       .  A
C2908      H2919   1.084       .  S
C2909      C2910   1.393       .  A
C2909      H2920   1.084       .  S
C2910      C2911   1.400       .  A
C2910      H2921   1.084       .  S
C2911      C2912   1.424       .  A
C2911      C2916   1.413       .  A
C2912      C2913   1.415       .  A
C2913      C2914   1.400       .  A
C2913      H2922   1.077       .  S
C2914      C2915   1.403       .  A
C2914      H2923   1.083       .  S
C2915      C2916   1.404       .  A
C2916      H2924   1.084       .  S
C2925      C2926   1.401       .  A
C2925      C2930   1.403       .  A
C2926      C2927   1.393       .  A
C2926      H2939   1.083       .  S
C2927      C2928   1.412       .  A
C2927      H2940   1.077       .  S
C2928      C2934   1.431       .  A
C2928      C2929   1.424       .  A
C2929      C2931   1.400       .  A
C2929      C2930   1.412       .  A
C2930      H2941   1.084       .  S
C2931      C2932   1.393       .  A
C2931      H2942   1.084       .  S
C2932      C2933   1.402       .  A
C2932      H2943   1.084       .  S
C2933      C2934   1.420       .  A
C2933      C2938   1.408       .  A
C2934      C2935   1.417       .  A
C2935      C2936   1.397       .  A
C2935      H2944   1.077       .  S
C2936      C2937   1.398       .  A
C2936      H2945   1.083       .  S
C2937      C2938   1.405       .  A
C2938      H2946   1.084       .  S
C2947      C2948   1.403       .  A
C2947      C2952   1.404       .  A
C2948      C2949   1.404       .  A
C2948      H2961   1.083       .  S
C2949      C2950   1.417       .  A
C2949      H2962   1.078       .  S
C2950      C2956   1.437       .  A
C2950      C2951   1.422       .  A
C2951      C2953   1.400       .  A
C2951      C2952   1.407       .  A
C2952      H2963   1.083       .  S
C2953      C2954   1.390       .  A
C2953      H2964   1.084       .  S
C2954      C2955   1.399       .  A
C2954      H2965   1.084       .  S
C2955      C2956   1.423       .  A
C2955      C2960   1.408       .  A
C2956      C2957   1.416       .  A
C2957      C2958   1.402       .  A
C2957      H2966   1.078       .  S
C2958      C2959   1.404       .  A
C2958      H2967   1.083       .  S
C2959      C2960   1.403       .  A
C2960      H2968   1.084       .  S
C2969      C2970   1.403       .  A
C2969      C2974   1.400       .  A
C2970      C2971   1.400       .  A
C2970      H2983   1.083       .  S
C2971      C2972   1.414       .  A
C2971      H2984   1.078       .  S
C2972      C2978   1.435       .  A
C2972      C2973   1.425       .  A
C2973      C2975   1.398       .  A
C2973      C2974   1.408       .  A
C2974      H2985   1.084       .  S
C2975      C2976   1.389       .  A
C2975      H2986   1.084       .  S
C2976      C2977   1.400       .  A
C2976      H2987   1.084       .  S
C2977      C2978   1.421       .  A
C2977      C2982   1.404       .  A
C2978      C2979   1.418       .  A
C2979      C2980   1.404       .  A
C2979      H2988   1.078       .  S
C2980      C2981   1.401       .  A
C2980      H2989   1.083       .  S
C2981      C2982   1.404       .  A
C2982      H2990   1.083       .  S
C2991      C2992   1.403       .  A
C2991      C2996   1.406       .  A
C2992      C2993   1.399       .  A
C2992      H3005   1.082       .  S
C2993      C2994   1.415       .  A
C2993      H3006   1.077       .  S
C2994      C3000   1.436       .  A
C2994      C2995   1.422       .  A
C2995      C2997   1.401       .  A
C2995      C2996   1.412       .  A
C2996      H3007   1.083       .  S
C2997      C2998   1.393       .  A
C2997      H3008   1.084       .  S
C2998      C2999   1.401       .  A
C2998      H3009   1.084       .  S
C2999      C3000   1.423       .  A
C2999      C3004   1.412       .  A
C3000      C3001   1.415       .  A
C3001      C3002   1.399       .  A
C3001      H3010   1.077       .  S
C3002      C3003   1.403       .  A
C3002      H3011   1.083       .  S
C3003      C3004   1.406       .  A
C3004      H3012   1.084       .  S
C3013      C3014   1.402       .  A
C3013      C3018   1.401       .  A
C3014      C3015   1.395       .  A
C3014      H3027   1.083       .  S
C3015      C3016   1.412       .  A
C3015      H3028   1.077       .  S
C3016      C3022   1.434       .  A
C3016      C3017   1.425       .  A
C3017      C3019   1.400       .  A
C3017      C3018   1.413       .  A
C3018      H3029   1.084       .  S
C3019      C3020   1.393       .  A
C3019      H3030   1.084       .  S
C3020      C3021   1.402       .  A
C3020      H3031   1.084       .  S
C3021      C3022   1.421       .  A
C3021      C3026   1.409       .  A
C3022      C3023   1.418       .  A
C3023      C3024   1.401       .  A
C3023      H3032   1.077       .  S
C3024      C3025   1.399       .  A
C3024      H3033   1.083       .  S
C3025      C3026   1.406       .  A
C3026      H3034   1.084       .  S
C3035      C3036   1.399       .  A
C3035      C3040   1.404       .  A
C3036      C3037   1.399       .  A
C3036      H3049   1.083       .  S
C3037      C3038   1.417       .  A
C3037      H3050   1.077       .  S
C3038      C3044   1.432       .  A
C3038      C3039   1.420       .  A
C3039      C3041   1.401       .  A
C3039      C3040   1.406       .  A
C3040      H3051   1.084       .  S
C3041      C3042   1.392       .  A
C3041      H3052   1.084       .  S
C3042      C3043   1.400       .  A
C3042      H3053   1.084       .  S
C3043      C3044   1.424       .  A
C3043      C3048   1.410       .  A
C3044      C3045   1.412       .  A
C3045      C3046   1.394       .  A
C3045      H3054   1.077       .  S
C3046      C3047   1.403       .  A
C3046      H3055   1.082       .  S
C3047      C3048   1.403       .  A
C3048      H3056   1.084       .  S
C3057      C3058   1.403       .  A
C3057      C3062   1.403       .  A
C3058      C3059   1.398       .  A
C3058      H3071   1.082       .  S
C3059      C3060   1.414       .  A
C3059      H3072   1.077       .  S
C3060      C3066   1.433       .  A
C3060      C3061   1.423       .  A
C3061      C3063   1.400       .  A
C3061      C3062   1.409       .  A
C3062      H3073   1.083       .  S
C3063      C3064   1.391       .  A
C3063      H3074   1.084       .  S
C3064      C3065   1.400       .  A
C3064      H3075   1.084       .  S
C3065      C3066   1.423       .  A
C3065      C3070   1.408       .  A
C3066      C3067   1.415       .  A
C3067      C3068   1.398       .  A
C3067      H3076   1.077       .  S
C3068      C3069   1.402       .  A
C3068      H3077   1.083       .  S
C3069      C3070   1.404       .  A
C3070      H3078   1.084       .  S
C3079      C3080   1.401       .  A
C3079      C3084   1.402       .  A
C3080      C3081   1.396       .  A
C3080      H3093   1.083       .  S
C3081      C3082   1.414       .  A
C3081      H3094   1.077       .  S
C3082      C3088   1.433       .  A
C3082      C3083   1.424       .  A
C3083      C3085   1.400       .  A
C3083      C3084   1.410       .  A
C3084      H3095   1.084       .  S
C3085      C3086   1.392       .  A
C3085      H3096   1.084       .  S
C3086      C3087   1.401       .  A
C3086      H3097   1.084       .  S
C3087      C3088   1.422       .  A
C3087      C3092   1.408       .  A
C3088      C3089   1.416       .  A
C3089      C3090   1.399       .  A
C3089      H3098   1.077       .  S
C3090      C3091   1.402       .  A
C3090      H3099   1.083       .  S
C3091      C3092   1.405       .  A
C3092      H3100   1.084       .  S
C3101      C3102   1.399       .  A
C3101      C3106   1.399       .  A
C3102      C3103   1.395       .  A
C3102      H3115   1.083       .  S
C3103      C3104   1.414       .  A
C3103      H3116   1.077       .  S
C3104      C3110   1.429       .  A
C3104      C3105   1.424       .  A
C3105      C3107   1.399       .  A
C3105      C3106   1.405       .  A
C3106      H3117   1.085       .  S
C3107      C3108   1.389       .  A
C3107      H3118   1.084       .  S
C3108      C3109   1.399       .  A
C3108      H3119   1.084       .  S
C3109      C3110   1.421       .  A
C3109      C3114   1.401       .  A
C3110      C3111   1.417       .  A
C3111      C3112   1.398       .  A
C3111      H3120   1.077       .  S
C3112      C3113   1.398       .  A
C3112      H3121   1.083       .  S
C3113      C3114   1.401       .  A
C3114      H3122   1.084       .  S
C3123      C3124   1.402       .  A
C3123      C3128   1.404       .  A
C3124      C3125   1.402       .  A
C3124      H3137   1.083       .  S
C3125      C3126   1.416       .  A
C3125      H3138   1.078       .  S
C3126      C3132   1.436       .  A
C3126      C3127   1.423       .  A
C3127      C3129   1.401       .  A
C3127      C3128   1.411       .  A
C3128      H3139   1.084       .  S
C3129      C3130   1.393       .  A
C3129      H3140   1.084       .  S
C3130      C3131   1.400       .  A
C3130      H3141   1.084       .  S
C3131      C3132   1.424       .  A
C3131      C3136   1.411       .  A
C3132      C3133   1.417       .  A
C3133      C3134   1.401       .  A
C3133      H3142   1.078       .  S
C3134      C3135   1.399       .  A
C3134      H3143   1.083       .  S
C3135      C3136   1.402       .  A
C3136      H3144   1.085       .  S
C3145      C3146   1.403       .  A
C3145      C3150   1.404       .  A
C3146      C3147   1.402       .  A
C3146      H3159   1.082       .  S
C3147      C3148   1.416       .  A
C3147      H3160   1.078       .  S
C3148      C3154   1.436       .  A
C3148      C3149   1.422       .  A
C3149      C3151   1.400       .  A
C3149      C3150   1.407       .  A
C3150      H3161   1.083       .  S
C3151      C3152   1.390       .  A
C3151      H3162   1.084       .  S
C3152      C3153   1.399       .  A
C3152      H3163   1.084       .  S
C3153      C3154   1.423       .  A
C3153      C3158   1.408       .  A
C3154      C3155   1.416       .  A
C3155      C3156   1.401       .  A
C3155      H3164   1.078       .  S
C3156      C3157   1.403       .  A
C3156      H3165   1.083       .  S
C3157      C3158   1.403       .  A
C3158      H3166   1.084       .  S
C3167      C3168   1.399       .  A
C3167      C3172   1.404       .  A
C3168      C3169   1.399       .  A
C3168      H3181   1.083       .  S
C3169      C3170   1.417       .  A
C3169      H3182   1.078       .  S
C3170      C3176   1.430       .  A
C3170      C3171   1.420       .  A
C3171      C3173   1.400       .  A
C3171      C3172   1.404       .  A
C3172      H3183   1.084       .  S
C3173      C3174   1.391       .  A
C3173      H3184   1.084       .  S
C3174      C3175   1.399       .  A
C3174      H3185   1.084       .  S
C3175      C3176   1.425       .  A
C3175      C3180   1.409       .  A
C3176      C3177   1.413       .  A
C3177      C3178   1.395       .  A
C3177      H3186   1.078       .  S
C3178      C3179   1.401       .  A
C3178      H3187   1.083       .  S
C3179      C3180   1.401       .  A
C3180      H3188   1.084       .  S
C3189      C3190   1.401       .  A
C3189      C3194   1.401       .  A
C3190      C3191   1.395       .  A
C3190      H3203   1.083       .  S
C3191      C3192   1.413       .  A
C3191      H3204   1.077       .  S
C3192      C3198   1.432       .  A
C3192      C3193   1.425       .  A
C3193      C3195   1.400       .  A
C3193      C3194   1.410       .  A
C3194      H3205   1.084       .  S
C3195      C3196   1.392       .  A
C3195      H3206   1.084       .  S
C3196      C3197   1.401       .  A
C3196      H3207   1.084       .  S
C3197      C3198   1.421       .  A
C3197      C3202   1.407       .  A
C3198      C3199   1.417       .  A
C3199      C3200   1.399       .  A
C3199      H3208   1.077       .  S
C3200      C3201   1.400       .  A
C3200      H3209   1.083       .  S
C3201      C3202   1.405       .  A
C3202      H3210   1.084       .  S
C3211      C3212   1.402       .  A
C3211      C3216   1.402       .  A
C3212      C3213   1.399       .  A
C3212      H3225   1.083       .  S
C3213      C3214   1.416       .  A
C3213      H3226   1.077       .  S
C3214      C3220   1.433       .  A
C3214      C3215   1.423       .  A
C3215      C3217   1.400       .  A
C3215      C3216   1.407       .  A
C3216      H3227   1.084       .  S
C3217      C3218   1.390       .  A
C3217      H3228   1.084       .  S
C3218      C3219   1.399       .  A
C3218      H3229   1.084       .  S
C3219      C3220   1.423       .  A
C3219      C3224   1.407       .  A
C3220      C3221   1.415       .  A
C3221      C3222   1.398       .  A
C3221      H3230   1.077       .  S
C3222      C3223   1.403       .  A
C3222      H3231   1.083       .  S
C3223      C3224   1.402       .  A
C3224      H3232   1.084       .  S
C3233      C3234   1.401       .  A
C3233      C3238   1.403       .  A
C3234      C3235   1.399       .  A
C3234      H3247   1.083       .  S
C3235      C3236   1.416       .  A
C3235      H3248   1.077       .  S
C3236      C3242   1.433       .  A
C3236      C3237   1.422       .  A
C3237      C3239   1.400       .  A
C3237      C3238   1.407       .  A
C3238      H3249   1.084       .  S
C3239      C3240   1.391       .  A
C3239      H3250   1.084       .  S
C3240      C3241   1.400       .  A
C3240      H3251   1.084       .  S
C3241      C3242   1.423       .  A
C3241      C3246   1.407       .  A
C3242      C3243   1.415       .  A
C3243      C3244   1.398       .  A
C3243      H3252   1.077       .  S
C3244      C3245   1.402       .  A
C3244      H3253   1.083       .  S
C3245      C3246   1.404       .  A
C3246      H3254   1.084       .  S
C3255      C3256   1.399       .  A
C3255      C3260   1.404       .  A
C3256      C3257   1.399       .  A
C3256      H3269   1.083       .  S
C3257      C3258   1.417       .  A
C3257      H3270   1.077       .  S
C3258      C3264   1.432       .  A
C3258      C3259   1.421       .  A
C3259      C3261   1.401       .  A
C3259      C3260   1.407       .  A
C3260      H3271   1.084       .  S
C3261      C3262   1.392       .  A
C3261      H3272   1.084       .  S
C3262      C3263   1.400       .  A
C3262      H3273   1.084       .  S
C3263      C3264   1.425       .  A
C3263      C3268   1.411       .  A
C3264      C3265   1.413       .  A
C3265      C3266   1.395       .  A
C3265      H3274   1.077       .  S
C3266      C3267   1.401       .  A
C3266      H3275   1.083       .  S
C3267      C3268   1.401       .  A
C3268      H3276   1.084       .  S
C3277      C3278   1.401       .  A
C3277      C3282   1.400       .  A
C3278      C3279   1.397       .  A
C3278      H3291   1.083       .  S
C3279      C3280   1.414       .  A
C3279      H3292   1.077       .  S
C3280      C3286   1.431       .  A
C3280      C3281   1.424       .  A
C3281      C3283   1.398       .  A
C3281      C3282   1.405       .  A
C3282      H3293   1.084       .  S
C3283      C3284   1.388       .  A
C3283      H3294   1.084       .  S
C3284      C3285   1.399       .  A
C3284      H3295   1.084       .  S
C3285      C3286   1.421       .  A
C3285      C3290   1.402       .  A
C3286      C3287   1.417       .  A
C3287      C3288   1.400       .  A
C3287      H3296   1.077       .  S
C3288      C3289   1.401       .  A
C3288      H3297   1.083       .  S
C3289      C3290   1.403       .  A
C3290      H3298   1.083       .  S
C3299      C3300   1.403       .  A
C3299      C3304   1.407   1_556  A
C3300      C3301   1.399       .  A
C3300      H3313   1.082       .  S
C3301      C3302   1.415   1_556  A
C3301      H3314   1.077       .  S
C3302      C3308   1.435       .  A
C3302      C3303   1.422       .  A
C3303      C3305   1.401       .  A
C3303      C3304   1.411       .  A
C3304      H3315   1.083       .  S
C3305      C3306   1.392       .  A
C3305      H3316   1.084       .  S
C3306      C3307   1.400       .  A
C3306      H3317   1.084       .  S
C3307      C3308   1.423       .  A
C3307      C3312   1.410       .  A
C3308      C3309   1.416       .  A
C3309      C3310   1.399       .  A
C3309      H3318   1.077   1_554  S
C3310      C3311   1.401       .  A
C3310      H3319   1.083       .  S
C3311      C3312   1.403       .  A
C3312      H3320   1.084       .  S
C3321      C3322   1.401       .  A
C3321      C3326   1.406       .  A
C3322      C3323   1.400       .  A
C3322      H3335   1.082       .  S
C3323      C3324   1.417       .  A
C3323      H3336   1.077       .  S
C3324      C3330   1.433       .  A
C3324      C3325   1.420       .  A
C3325      C3327   1.401       .  A
C3325      C3326   1.407       .  A
C3326      H3337   1.083       .  S
C3327      C3328   1.392       .  A
C3327      H3338   1.084       .  S
C3328      C3329   1.399       .  A
C3328      H3339   1.084       .  S
C3329      C3330   1.424       .  A
C3329      C3334   1.411       .  A
C3330      C3331   1.412       .  A
C3331      C3332   1.395       .  A
C3331      H3340   1.077       .  S
C3332      C3333   1.403       .  A
C3332      H3341   1.082       .  S
C3333      C3334   1.402       .  A
C3334      H3342   1.084       .  S
C3343      C3344   1.404       .  A
C3343      C3348   1.408   1_556  A
C3344      C3345   1.400       .  A
C3344      H3357   1.082       .  S
C3345      C3346   1.415   1_556  A
C3345      H3358   1.077       .  S
C3346      C3352   1.436       .  A
C3346      C3347   1.422       .  A
C3347      C3349   1.401       .  A
C3347      C3348   1.411       .  A
C3348      H3359   1.083       .  S
C3349      C3350   1.393       .  A
C3349      H3360   1.084       .  S
C3350      C3351   1.400       .  A
C3350      H3361   1.084       .  S
C3351      C3352   1.423       .  A
C3351      C3356   1.412       .  A
C3352      C3353   1.415       .  A
C3353      C3354   1.399       .  A
C3353      H3362   1.077   1_554  S
C3354      C3355   1.403       .  A
C3354      H3363   1.082       .  S
C3355      C3356   1.404       .  A
C3356      H3364   1.084       .  S
C3365      C3366   1.399       .  A
C3365      C3370   1.404       .  A
C3366      C3367   1.401       .  A
C3366      H3379   1.083       .  S
C3367      C3368   1.418       .  A
C3367      H3380   1.077       .  S
C3368      C3374   1.434       .  A
C3368      C3369   1.421       .  A
C3369      C3371   1.400       .  A
C3369      C3370   1.406       .  A
C3370      H3381   1.084       .  S
C3371      C3372   1.391       .  A
C3371      H3382   1.084       .  S
C3372      C3373   1.400       .  A
C3372      H3383   1.084       .  S
C3373      C3374   1.425       .  A
C3373      C3378   1.411       .  A
C3374      C3375   1.413       .  A
C3375      C3376   1.397       .  A
C3375      H3384   1.077       .  S
C3376      C3377   1.403       .  A
C3376      H3385   1.083       .  S
C3377      C3378   1.402       .  A
C3378      H3386   1.084       .  S
C3387      C3388   1.399       .  A
C3387      C3392   1.400       .  A
C3388      C3389   1.399       .  A
C3388      H3401   1.083       .  S
C3389      C3390   1.415       .  A
C3389      H3402   1.078       .  S
C3390      C3396   1.431       .  A
C3390      C3391   1.423       .  A
C3391      C3393   1.399       .  A
C3391      C3392   1.405       .  A
C3392      H3403   1.085       .  S
C3393      C3394   1.389       .  A
C3393      H3404   1.084       .  S
C3394      C3395   1.400       .  A
C3394      H3405   1.084       .  S
C3395      C3396   1.421       .  A
C3395      C3400   1.403       .  A
C3396      C3397   1.417       .  A
C3397      C3398   1.400       .  A
C3397      H3406   1.078       .  S
C3398      C3399   1.400       .  A
C3398      H3407   1.083       .  S
C3399      C3400   1.402       .  A
C3400      H3408   1.084       .  S
