geometry optimzed in LAMMPS
_audit_creation_date              2020-11-30 
_audit_creation_method            'lammps2cif' 
_symmetry_space_group_name_H-M    'P1' 
_symmetry_Int_Tables_number       1 
_symmetry_cell_setting            triclinic 
loop_ 
_symmetry_equiv_pos_as_xyz 
  x,y,z 
_cell_length_a                    103.3764118 
_cell_length_b                    102.66251857893582 
_cell_length_c                    112.93062636005499 
_cell_angle_alpha                 89.9916542246536 
_cell_angle_beta                  89.94393247259111 
_cell_angle_gamma                 89.97026102070804 
loop_ 
_atom_site_label 
_atom_site_type_symbol 
_atom_site_fract_x 
_atom_site_fract_y 
_atom_site_fract_z 
_atom_site_charge 
N1          N  0.82558775  0.73600933  0.17068707    -0.26800
N2          N  0.81512550  0.74236717  0.17414931    -0.34600
C3          C  0.81212945  0.75146015  0.16604452     0.01600
C4          C  0.82117804  0.75089857  0.15703792     0.07600
C5          C  0.82959319  0.74099660  0.16026568    -0.05500
H6          H  0.80404759  0.75811191  0.16676883     0.08300
H7          H  0.83794416  0.73759919  0.15538143     0.09500
Cu8        Cu  0.80572295  0.73893488  0.19000793     0.44200
Cu9        Cu  0.83356837  0.72072197  0.18043744     0.42000
Cu10       Cu  0.81822012  0.71335948  0.20886720     0.43900
N11         N  0.79884814  0.73528698  0.20688207    -0.34200
N12         N  0.80345172  0.72605221  0.21386984    -0.28400
C13         C  0.79726250  0.72664021  0.22434904    -0.04500
C14         C  0.78835206  0.73672079  0.22390105     0.07700
C15         C  0.78962639  0.74197112  0.21269079     0.01500
H16         H  0.79920185  0.72026866  0.23176743     0.09100
H17         H  0.78440307  0.75017552  0.20904873     0.08200
N18         N  0.83332327  0.70247805  0.20163436    -0.35600
N19         N  0.83896497  0.70528363  0.19142102    -0.27800
C20         C  0.84831433  0.69645254  0.18930959    -0.03000
C21         C  0.84857595  0.68762092  0.19858734     0.05600
C22         C  0.83892675  0.69175160  0.20624031     0.03700
H23         H  0.85439208  0.69640831  0.18150802     0.08800
H24         H  0.83616636  0.68731146  0.21455345     0.07600
N25         N  0.69673238  0.76795476  0.33824523    -0.26800
N26         N  0.70694340  0.76116447  0.33482947    -0.34600
C27         C  0.70922021  0.75167219  0.34276152     0.01600
C28         C  0.69992386  0.75244623  0.35154771     0.07600
C29         C  0.69213820  0.76285444  0.34839771    -0.05500
H30         H  0.71694279  0.74459730  0.34205660     0.08300
H31         H  0.68385298  0.76656139  0.35319048     0.09500
Cu32       Cu  0.71683725  0.76464824  0.31919374     0.44200
Cu33       Cu  0.68992727  0.78411582  0.32905222     0.42000
Cu34       Cu  0.70583030  0.79201459  0.30130781     0.43900
N35         N  0.72362155  0.76865313  0.30231484    -0.34200
N36         N  0.71949567  0.77843491  0.29569165    -0.28400
C37         C  0.72530199  0.77776102  0.28503094    -0.04500
C38         C  0.73347176  0.76706595  0.28497575     0.07700
C39         C  0.73217480  0.76154938  0.29608282     0.01500
H40         H  0.72360650  0.78450257  0.27783570     0.09100
H41         H  0.73687163  0.75284516  0.29934821     0.08200
N42         N  0.69167128  0.80370172  0.30904736    -0.35600
N43         N  0.68582208  0.80066946  0.31909798    -0.27800
C44         C  0.67730576  0.81011016  0.32182777    -0.03000
C45         C  0.67778233  0.81958348  0.31310966     0.05600
C46         C  0.68700608  0.81519103  0.30513101     0.03700
H47         H  0.67131109  0.81010525  0.32968079     0.08800
H48         H  0.69015394  0.82000713  0.29711055     0.07600
N49         N  0.90464791  0.41081080  0.30295007    -0.26800
N50         N  0.90781016  0.40764297  0.31392365    -0.34600
C51         C  0.90199678  0.39641350  0.31684674     0.01600
C52         C  0.89473123  0.39221877  0.30731431     0.07600
C53         C  0.89660770  0.40159937  0.29862477    -0.05500
H54         H  0.90303051  0.39166337  0.32534272     0.08300
H55         H  0.89247661  0.40171928  0.28982900     0.09500
Cu56       Cu  0.92013437  0.41823662  0.32466080     0.44200
Cu57       Cu  0.91158759  0.42769752  0.29473935     0.42000
Cu58       Cu  0.93504186  0.44640280  0.31232401     0.43900
N59         N  0.93440795  0.42862501  0.33332128    -0.34200
N60         N  0.94051352  0.43858977  0.32846880    -0.28400
C61         C  0.94997171  0.44255828  0.33581208    -0.04500
C62         C  0.94959357  0.43482136  0.34582898     0.07700
C63         C  0.93959038  0.42614463  0.34399371     0.01500
H64         H  0.95646311  0.45060038  0.33407947     0.09100
H65         H  0.93653322  0.41837166  0.34982965     0.08200
N66         N  0.92702889  0.45278764  0.29653004    -0.35600
N67         N  0.91899269  0.44591206  0.28988463    -0.27800
C68         C  0.91589164  0.45300095  0.28024536    -0.03000
C69         C  0.92207871  0.46494216  0.28100747     0.05600
C70         C  0.92901118  0.46446598  0.29144408     0.03700
H71         H  0.90929211  0.44986219  0.27338809     0.08800
H72         H  0.93511378  0.47203249  0.29507449     0.07600
N73         N  0.91154780  0.59439775  0.20996360    -0.26800
N74         N  0.91791681  0.59908534  0.20073655    -0.34600
C75         C  0.91322672  0.61093223  0.19803971     0.01600
C76         C  0.90337188  0.61392688  0.20588187     0.07600
C77         C  0.90259532  0.60322264  0.21336767    -0.05500
H78         H  0.91644678  0.61669626  0.19058390     0.08300
H79         H  0.89571980  0.60174239  0.22046808     0.09500
Cu80       Cu  0.93153556  0.58868410  0.19103673     0.44200
Cu81       Cu  0.91469970  0.57561519  0.21656518     0.42000
Cu82       Cu  0.93122174  0.55410177  0.19563294     0.43900
N83         N  0.94204446  0.57577202  0.18062694    -0.34200
N84         N  0.94132773  0.56299055  0.18188432    -0.28400
C85         C  0.94868548  0.55728356  0.17351717    -0.04500
C86         C  0.95440531  0.56694908  0.16674486     0.07700
C87         C  0.94999134  0.57854984  0.17151770     0.01500
H88         H  0.94999468  0.54687637  0.17260628     0.09100
H89         H  0.95221807  0.58829360  0.16849277     0.08200
N90         N  0.92392982  0.54804935  0.21192115    -0.35600
N91         N  0.91871891  0.55596742  0.21985873    -0.27800
C92         C  0.91648379  0.54919855  0.22988985    -0.03000
C93         C  0.92026105  0.53640013  0.22808791     0.05600
C94         C  0.92486862  0.53602366  0.21659771     0.03700
H95         H  0.91234935  0.55327350  0.23787683     0.08800
H96         H  0.92909754  0.52773311  0.21211890     0.07600
N97         N  0.81999073  0.26767246  0.33436849    -0.26800
N98         N  0.80917185  0.26178500  0.33118635    -0.34600
C99         C  0.80593918  0.25295948  0.33948193     0.01600
C100        C  0.81523005  0.25319704  0.34828205     0.07600
C101        C  0.82402148  0.26262321  0.34474190    -0.05500
H102        H  0.79762833  0.24658878  0.33895499     0.08300
H103        H  0.83267951  0.26562220  0.34937058     0.09500
Cu104      Cu  0.79990735  0.26532110  0.31523862     0.44200
Cu105      Cu  0.82836388  0.28252077  0.32439527     0.42000
Cu106      Cu  0.81342027  0.29003754  0.29587134     0.43900
N107        N  0.79365880  0.26857434  0.29805373    -0.34200
N108        N  0.79855860  0.27753789  0.29093673    -0.28400
C109        C  0.79285644  0.27655215  0.28026008    -0.04500
C110        C  0.78403447  0.26641373  0.28067760     0.07700
C111        C  0.78479293  0.26160711  0.29209313     0.01500
H112        H  0.79526285  0.28250635  0.27266808     0.09100
H113        H  0.77953223  0.25343959  0.29575538     0.08200
N114        N  0.82823400  0.30096779  0.30335256    -0.35600
N115        N  0.83362483  0.29816489  0.31366666    -0.27800
C116        C  0.84244317  0.30735310  0.31623663    -0.03000
C117        C  0.84265087  0.31638691  0.30713506     0.05600
C118        C  0.83353544  0.31201083  0.29908948     0.03700
H119        H  0.84811824  0.30752395  0.32427407     0.08800
H120        H  0.83076038  0.31663229  0.29086507     0.07600
N121        N  0.69997661  0.22728310  0.16408093    -0.26800
N122        N  0.70962025  0.23462415  0.16784729    -0.34600
C123        C  0.71145521  0.24447744  0.16018747     0.01600
C124        C  0.70244172  0.24336809  0.15120258     0.07600
C125        C  0.69528154  0.23237130  0.15396246    -0.05500
H126        H  0.71864524  0.25204027  0.16123886     0.08300
H127        H  0.68735558  0.22828932  0.14893727     0.09500
Cu128      Cu  0.71909413  0.23131832  0.18369772     0.44200
Cu129      Cu  0.69420495  0.21055188  0.17298474     0.42000
Cu130      Cu  0.70906830  0.20353119  0.20167219     0.43900
N131        N  0.72537614  0.22796454  0.20082306    -0.34200
N132        N  0.72168971  0.21803363  0.20748487    -0.28400
C133        C  0.72712566  0.21927153  0.21826480    -0.04500
C134        C  0.73453768  0.23052240  0.21835129     0.07700
C135        C  0.73319647  0.23575231  0.20714930     0.01500
H136        H  0.72565426  0.21256117  0.22552753     0.09100
H137        H  0.73741416  0.24468113  0.20384332     0.08200
N138        N  0.69602656  0.19113779  0.19320108    -0.35600
N139        N  0.69069968  0.19381326  0.18283012    -0.27800
C140        C  0.68261144  0.18411021  0.17985542    -0.03000
C141        C  0.68276640  0.17485849  0.18876006     0.05600
C142        C  0.69140905  0.17961475  0.19708397     0.03700
H143        H  0.67690225  0.18392362  0.17183669     0.08800
H144        H  0.69401476  0.17514893  0.20542417     0.07600
N145        N  0.61998465  0.08143708  0.19909212    -0.26800
N146        N  0.61520244  0.08503063  0.18873674    -0.34600
C147        C  0.62143554  0.09572411  0.18493965     0.01600
C148        C  0.63061390  0.09914091  0.19327177     0.07600
C149        C  0.62945752  0.08983936  0.20214340    -0.05500
H150        H  0.61913196  0.10084621  0.17684276     0.08300
H151        H  0.63485704  0.08940152  0.21033445     0.09500
Cu152      Cu  0.59941278  0.07638353  0.18063260     0.44200
Cu153      Cu  0.61247308  0.06572599  0.20870303     0.42000
Cu154      Cu  0.57995377  0.05591176  0.19872449     0.43900
N155        N  0.58150069  0.06948116  0.17532915    -0.34200
N156        N  0.57385799  0.06258900  0.18230683    -0.28400
C157        C  0.56272944  0.06005546  0.17654532    -0.04500
C158        C  0.56353426  0.06550279  0.16535692     0.07700
C159        C  0.57557015  0.07135939  0.16488450     0.01500
H160        H  0.55490775  0.05420248  0.18004066     0.09100
H161        H  0.57972589  0.07659905  0.15749015     0.08200
N162        N  0.58969103  0.04762209  0.21292064    -0.35600
N163        N  0.60164079  0.05057472  0.21617841    -0.27800
C164        C  0.60535961  0.04219985  0.22472415    -0.03000
C165        C  0.59521640  0.03373588  0.22701177     0.05600
C166        C  0.58545458  0.03750659  0.21941730     0.03700
H167        H  0.61478005  0.04220510  0.22888890     0.08800
H168        H  0.57615126  0.03285108  0.21828378     0.07600
N169        N  0.61695503  0.91479319  0.30800279    -0.26800
N170        N  0.61270904  0.91144034  0.31861717    -0.34600
C171        C  0.61873624  0.90049036  0.32208978     0.01600
C172        C  0.62725269  0.89669334  0.31327637     0.07600
C173        C  0.62589775  0.90602263  0.30446157    -0.05500
H174        H  0.61680069  0.89549597  0.33033641     0.08300
H175        H  0.63075895  0.90622291  0.29597717     0.09500
Cu176      Cu  0.59799076  0.92108343  0.32753233     0.44200
Cu177      Cu  0.60931497  0.93068843  0.29880586     0.42000
Cu178      Cu  0.57851409  0.94335014  0.31073780     0.43900
N179        N  0.58102085  0.92926451  0.33392929    -0.34200
N180        N  0.57340237  0.93685825  0.32755064    -0.28400
C181        C  0.56271574  0.93967045  0.33390646    -0.04500
C182        C  0.56377585  0.93365043  0.34484037     0.07700
C183        C  0.57551371  0.92719109  0.34454902     0.01500
H184        H  0.55487386  0.94579179  0.33086010     0.09100
H185        H  0.57961970  0.92115155  0.35143985     0.08200
N186        N  0.58742574  0.95015153  0.29540889    -0.35600
N187        N  0.59876457  0.94603437  0.29141490    -0.27800
C188        C  0.60220232  0.95337637  0.28204284    -0.03000
C189        C  0.59253584  0.96242863  0.27997016     0.05600
C190        C  0.58330551  0.96006513  0.28857724     0.03700
H191        H  0.61114080  0.95225710  0.27715873     0.08800
H192        H  0.57449026  0.96550405  0.29008794     0.07600
N193        N  0.79699725  0.77885505  0.71425955    -0.26800
N194        N  0.79222221  0.76965368  0.70733973    -0.34600
C195        C  0.78378905  0.76241034  0.71355852     0.01600
C196        C  0.78316113  0.76728525  0.72495279     0.07600
C197        C  0.79166727  0.77771380  0.72509783    -0.05500
H198        H  0.77850094  0.75421555  0.70999240     0.08300
H199        H  0.79381153  0.78402958  0.73250529     0.09500
Cu200      Cu  0.79741948  0.76706261  0.68980632     0.44200
Cu201      Cu  0.81047809  0.79252554  0.70848642     0.42000
Cu202      Cu  0.82197311  0.78795135  0.67806405     0.43900
N203        N  0.80523377  0.76476230  0.67307924    -0.34200
N204        N  0.81469348  0.77207025  0.66886230    -0.28400
C205        C  0.81826870  0.76743910  0.65818683    -0.04500
C206        C  0.81052458  0.75683107  0.65555153     0.07700
C207        C  0.80236857  0.75543998  0.66516591     0.01500
H208        H  0.82589220  0.77150781  0.65275960     0.09100
H209        H  0.79515273  0.74795133  0.66649565     0.08200
N210        N  0.82741568  0.80327648  0.68896471    -0.35600
N211        N  0.82343804  0.80495084  0.70000211    -0.27800
C212        C  0.82894877  0.81582077  0.70439600    -0.03000
C213        C  0.83671585  0.82122723  0.69568834     0.05600
C214        C  0.83548160  0.81301680  0.68604727     0.03700
H215        H  0.82733919  0.81953081  0.71324006     0.08800
H216        H  0.84011813  0.81400296  0.67750436     0.07600
N217        N  0.71791218  0.72154403  0.79741327    -0.26800
N218        N  0.72309179  0.73018150  0.80469957    -0.34600
C219        C  0.73172954  0.73742477  0.79868421     0.01600
C220        C  0.73199597  0.73316841  0.78706472     0.07600
C221        C  0.72316090  0.72305461  0.78659259    -0.05500
H222        H  0.73710756  0.74545655  0.80243935     0.08300
H223        H  0.72044701  0.71744150  0.77888039     0.09500
Cu224      Cu  0.71724095  0.73296650  0.82213744     0.44200
Cu225      Cu  0.70323301  0.70868681  0.80212388     0.42000
Cu226      Cu  0.68817112  0.71639314  0.83024927     0.43900
N227        N  0.70734987  0.73664503  0.83782335    -0.34200
N228        N  0.69624276  0.73099919  0.84050308    -0.28400
C229        C  0.69164909  0.73614084  0.85063583    -0.04500
C230        C  0.70035873  0.74539628  0.85457925     0.07700
C231        C  0.71021515  0.74543216  0.84625998     0.01500
H232        H  0.68265988  0.73331379  0.85481892     0.09100
H233        H  0.71863651  0.75168180  0.84613387     0.08200
N234        N  0.68301181  0.70063829  0.81982707    -0.35600
N235        N  0.68850513  0.69760131  0.80961534    -0.27800
C236        C  0.68345994  0.68628142  0.80570513    -0.03000
C237        C  0.67440850  0.68202911  0.81390145     0.05600
C238        C  0.67437744  0.69140095  0.82268830     0.03700
H239        H  0.68643307  0.68135849  0.79768248     0.08800
H240        H  0.66879415  0.69134015  0.83079207     0.07600
N241        N  0.61240794  0.41750955  0.70155963    -0.26800
N242        N  0.60757454  0.41401147  0.69121124    -0.34600
C243        C  0.61335589  0.40305254  0.68754261     0.01600
C244        C  0.62229181  0.39932717  0.69596096     0.07600
C245        C  0.62147344  0.40872009  0.70477611    -0.05500
H246        H  0.61093676  0.39800710  0.67943665     0.08300
H247        H  0.62687865  0.40903761  0.71296827     0.09500
Cu248      Cu  0.59261121  0.42333456  0.68265179     0.44200
Cu249      Cu  0.60563650  0.43391220  0.71053366     0.42000
Cu250      Cu  0.57438134  0.44646849  0.69855221     0.43900
N251        N  0.57607804  0.43167112  0.67583120    -0.34200
N252        N  0.56868648  0.43974511  0.68192463    -0.28400
C253        C  0.55842832  0.44310198  0.67519317    -0.04500
C254        C  0.55962955  0.43694007  0.66431127     0.07700
C255        C  0.57093582  0.42980916  0.66505347     0.01500
H256        H  0.55093795  0.44986238  0.67784826     0.09100
H257        H  0.57509785  0.42363696  0.65828165     0.08200
N258        N  0.58438067  0.45426212  0.71295225    -0.35600
N259        N  0.59581849  0.45028601  0.71683714    -0.27800
C260        C  0.59983314  0.45843628  0.72543924    -0.03000
C261        C  0.59041873  0.46783428  0.72715218     0.05600
C262        C  0.58076940  0.46485678  0.71913549     0.03700
H263        H  0.60888011  0.45749811  0.73017233     0.08800
H264        H  0.57191780  0.47023621  0.71764379     0.07600
N265        N  0.61489280  0.58642254  0.80881174    -0.26800
N266        N  0.61003699  0.59035039  0.81903685    -0.34600
C267        C  0.61635162  0.60108729  0.82260599     0.01600
C268        C  0.62562934  0.60414032  0.81421988     0.07600
C269        C  0.62446025  0.59460950  0.80559061    -0.05500
H270        H  0.61400381  0.60651347  0.83052995     0.08300
H271        H  0.62986774  0.59389893  0.79741031     0.09500
Cu272      Cu  0.59409644  0.58189425  0.82709541     0.44200
Cu273      Cu  0.60739624  0.57063423  0.79952574     0.42000
Cu274      Cu  0.57517224  0.56004202  0.80932661     0.43900
N275        N  0.57659640  0.57410032  0.83259892    -0.34200
N276        N  0.56918592  0.56671491  0.82583216    -0.28400
C277        C  0.55850964  0.56334829  0.83197301    -0.04500
C278        C  0.55939500  0.56872278  0.84318479     0.07700
C279        C  0.57097546  0.57545824  0.84326225     0.01500
H280        H  0.55104531  0.55687662  0.82875130     0.09100
H281        H  0.57511060  0.58081888  0.85058524     0.08200
N282        N  0.58529879  0.55184456  0.79524253    -0.35600
N283        N  0.59715797  0.55523290  0.79205621    -0.27800
C284        C  0.60126166  0.54712544  0.78346144    -0.03000
C285        C  0.59148189  0.53832095  0.78105179     0.05600
C286        C  0.58150765  0.54162676  0.78864653     0.03700
H287        H  0.61067389  0.54761173  0.77928926     0.08800
H288        H  0.57232543  0.53668757  0.78961501     0.07600
N289        N  0.81407617  0.23206629  0.83393512    -0.26800
N290        N  0.80297924  0.23774707  0.83127121    -0.34600
C291        C  0.80040907  0.24694597  0.83942456     0.01600
C292        C  0.81045842  0.24718026  0.84751034     0.07600
C293        C  0.81896895  0.23761864  0.84375897    -0.05500
H294        H  0.79214357  0.25340400  0.83915114     0.08300
H295        H  0.82809025  0.23497054  0.84778911     0.09500
Cu296      Cu  0.79279459  0.23380998  0.81579949     0.44200
Cu297      Cu  0.82179798  0.21701974  0.82395563     0.42000
Cu298      Cu  0.80514542  0.20819196  0.79663657     0.43900
N299        N  0.78621450  0.23052753  0.79863985    -0.34200
N300        N  0.79084720  0.22136846  0.79156824    -0.28400
C301        C  0.78535212  0.22261764  0.78081581    -0.04500
C302        C  0.77686386  0.23306544  0.78112791     0.07700
C303        C  0.77764557  0.23780808  0.79258093     0.01500
H304        H  0.78765363  0.21658560  0.77324771     0.09100
H305        H  0.77273567  0.24624527  0.79615219     0.08200
N306        N  0.81996470  0.19719634  0.80414950    -0.35600
N307        N  0.82609037  0.20067999  0.81392768    -0.27800
C308        C  0.83488802  0.19154704  0.81666609    -0.03000
C309        C  0.83430840  0.18178181  0.80826148     0.05600
C310        C  0.82474296  0.18567502  0.80042787     0.03700
H311        H  0.84104851  0.19190830  0.82439257     0.08800
H312        H  0.82139662  0.18047270  0.79268630     0.07600
N313        N  0.69626226  0.27555874  0.66354911    -0.26800
N314        N  0.70703612  0.26958436  0.66676757    -0.34600
C315        C  0.71001055  0.26049440  0.65863632     0.01600
C316        C  0.70057450  0.26063173  0.64997074     0.07600
C317        C  0.69198930  0.27028465  0.65336179    -0.05500
H318        H  0.71812930  0.25388000  0.65928069     0.08300
H319        H  0.68321681  0.27316669  0.64884659     0.09500
Cu320      Cu  0.71632777  0.27280798  0.68279471     0.44200
Cu321      Cu  0.68776742  0.29032745  0.67341518     0.42000
Cu322      Cu  0.70154841  0.29583313  0.70272416     0.43900
N323        N  0.72215431  0.27526331  0.70024953    -0.34200
N324        N  0.71662863  0.28358585  0.70761700    -0.28400
C325        C  0.72181742  0.28206228  0.71845714    -0.04500
C326        C  0.73101007  0.27225543  0.71789960     0.07700
C327        C  0.73098595  0.26820683  0.70620563     0.01500
H328        H  0.71877576  0.28738318  0.72624468     0.09100
H329        H  0.73658964  0.26036303  0.70238114     0.08200
N330        N  0.68663251  0.30685706  0.69556558    -0.35600
N331        N  0.68166228  0.30484910  0.68493192    -0.27800
C332        C  0.67256964  0.31391921  0.68281960    -0.03000
C333        C  0.67177675  0.32203484  0.69257502     0.05600
C334        C  0.68081185  0.31725928  0.70049613     0.03700
H335        H  0.66715435  0.31467954  0.67465858     0.08800
H336        H  0.68320960  0.32121034  0.70909667     0.07600
N337        N  0.89646625  0.08742137  0.80626835    -0.26800
N338        N  0.90113636  0.09192050  0.81635555    -0.34600
C339        C  0.89509573  0.10304538  0.81920203     0.01600
C340        C  0.88611080  0.10581640  0.81051663     0.07600
C341        C  0.88718116  0.09566981  0.80243302    -0.05500
H342        H  0.89739636  0.10887322  0.82689462     0.08300
H343        H  0.88193536  0.09459188  0.79420930     0.09500
Cu344      Cu  0.91648967  0.08381280  0.82530142     0.44200
Cu345      Cu  0.90422568  0.07083091  0.79812465     0.42000
Cu346      Cu  0.93622424  0.06102867  0.80935617     0.43900
N347        N  0.93375929  0.07672464  0.83165065    -0.34200
N348        N  0.94150494  0.06898782  0.82554202    -0.28400
C349        C  0.95213337  0.06650547  0.83204403    -0.04500
C350        C  0.95082172  0.07286361  0.84276950     0.07700
C351        C  0.93907361  0.07919966  0.84224672     0.01500
H352        H  0.95989672  0.06005732  0.82940141     0.09100
H353        H  0.93466645  0.08512019  0.84907603     0.08200
N354        N  0.92689079  0.05214109  0.79520441    -0.35600
N355        N  0.91512431  0.05521460  0.79150443    -0.27800
C356        C  0.91156595  0.04666777  0.78305619    -0.03000
C357        C  0.92158554  0.03789472  0.78129172     0.05600
C358        C  0.93114734  0.04170746  0.78911351     0.03700
H359        H  0.90230675  0.04676490  0.77860398     0.08800
H360        H  0.94031885  0.03691875  0.79064750     0.07600
N361        N  0.89831708  0.91542281  0.70458915    -0.26800
N362        N  0.90251412  0.91206534  0.69395287    -0.34600
C363        C  0.89602851  0.90148770  0.69026704     0.01600
C364        C  0.88737021  0.89787855  0.69900777     0.07600
C365        C  0.88905193  0.90694938  0.70797688    -0.05500
H366        H  0.89793559  0.89646690  0.68202927     0.08300
H367        H  0.88417576  0.90717230  0.71645438     0.09500
Cu368      Cu  0.91810010  0.92066488  0.68544549     0.44200
Cu369      Cu  0.90627335  0.93085849  0.71414628     0.42000
Cu370      Cu  0.93836535  0.94055216  0.70389652     0.43900
N371        N  0.93580777  0.92797068  0.67994103    -0.34200
N372        N  0.94372397  0.93445689  0.68698830    -0.28400
C373        C  0.95456096  0.93744237  0.68092684    -0.04500
C374        C  0.95325290  0.93280085  0.66948187     0.07700
C375        C  0.94125149  0.92688513  0.66916339     0.01500
H376        H  0.96249760  0.94313459  0.68440756     0.09100
H377        H  0.93678989  0.92214346  0.66164985     0.08200
N378        N  0.92895091  0.94894485  0.71834497    -0.35600
N379        N  0.91703294  0.94594782  0.72166468    -0.27800
C380        C  0.91325239  0.95431382  0.73019377    -0.03000
C381        C  0.92331335  0.96286649  0.73244971     0.05600
C382        C  0.93311781  0.95912823  0.72481709     0.03700
H383        H  0.90381118  0.95427321  0.73433491     0.08800
H384        H  0.94235774  0.96389378  0.72361184     0.07600
N385        N  0.34397951  0.35467887  0.55002978    -0.26800
N386        N  0.34812429  0.34917688  0.55991031    -0.34600
C387        C  0.35935887  0.35470133  0.56316410     0.01600
C388        C  0.36257133  0.36409593  0.55490072     0.07600
C389        C  0.35262681  0.36379819  0.54665820    -0.05500
H390        H  0.36475655  0.35206858  0.57101104     0.08300
H391        H  0.35157425  0.36999168  0.53896970     0.09500
Cu392      Cu  0.33822603  0.33465262  0.56878480     0.44200
Cu393      Cu  0.32614575  0.35002481  0.54233189     0.42000
Cu394      Cu  0.30501988  0.32927731  0.56029707     0.43900
N395        N  0.32632109  0.32122897  0.57697261    -0.34200
N396        N  0.31400083  0.31953326  0.57425064    -0.28400
C397        C  0.30893771  0.31052419  0.58159042    -0.04500
C398        C  0.31859696  0.30632242  0.58918526     0.07700
C399        C  0.32947803  0.31328299  0.58597093     0.01500
H400        H  0.29902083  0.30718001  0.58131326     0.09100
H401        H  0.33895604  0.31279674  0.59000123     0.08200
N402        N  0.29923055  0.33847458  0.54470761    -0.35600
N403        N  0.30705907  0.34532191  0.53781616    -0.27800
C404        C  0.30050184  0.34900056  0.52804989    -0.03000
C405        C  0.28791608  0.34446139  0.52894831     0.05600
C406        C  0.28745945  0.33788055  0.53963048     0.03700
H407        H  0.30453742  0.35474200  0.52091343     0.08800
H408        H  0.27926388  0.33271157  0.54329723     0.07600
N409        N  0.16091298  0.35267864  0.45589388    -0.26800
N410        N  0.15664495  0.34696808  0.44615759    -0.34600
C411        C  0.14471754  0.35139093  0.44369534     0.01600
C412        C  0.14125805  0.36034536  0.45227120     0.07600
C413        C  0.15173604  0.36090235  0.45990034    -0.05500
H414        H  0.13916427  0.34857133  0.43599864     0.08300
H415        H  0.15282747  0.36715990  0.46753853     0.09500
Cu416      Cu  0.16745409  0.33428282  0.43592437     0.44200
Cu417      Cu  0.17952751  0.34987486  0.46252355     0.42000
Cu418      Cu  0.20152973  0.33339678  0.44224307     0.43900
N419        N  0.18047573  0.32321633  0.42630635    -0.34200
N420        N  0.19307734  0.32329700  0.42827773    -0.28400
C421        C  0.19886900  0.31526241  0.42048443    -0.04500
C422        C  0.18942232  0.30977906  0.41337616     0.07700
C423        C  0.17788122  0.31503347  0.41731904     0.01500
H424        H  0.20914374  0.31327593  0.42024554     0.09100
H425        H  0.16829776  0.31309499  0.41390805     0.08200
N426        N  0.20719922  0.34142330  0.45835068    -0.35600
N427        N  0.19910839  0.34679104  0.46601942    -0.27800
C428        C  0.20566015  0.34981212  0.47595919    -0.03000
C429        C  0.21850098  0.34632618  0.47440828     0.05600
C430        C  0.21911842  0.34108845  0.46313447     0.03700
H431        H  0.20138658  0.35421536  0.48373823     0.08800
H432        H  0.22751436  0.33687173  0.45888059     0.07600
N433        N  0.52699026  0.56052944  0.41579759    -0.26800
N434        N  0.52155239  0.54912964  0.41797951    -0.34600
C435        C  0.51290165  0.54655224  0.40937517     0.01600
C436        C  0.51276695  0.55694821  0.40154575     0.07600
C437        C  0.52180604  0.56562821  0.40590454    -0.05500
H438        H  0.50676047  0.53802794  0.40912836     0.08300
H439        H  0.52439290  0.57499313  0.40220150     0.09500
Cu440      Cu  0.52531475  0.53851805  0.43335955     0.44200
Cu441      Cu  0.54124391  0.56847007  0.42643088     0.42000
Cu442      Cu  0.55039556  0.55051857  0.45315583     0.43900
N443        N  0.52912976  0.53064157  0.45004221    -0.34200
N444        N  0.53833080  0.53484171  0.45722897    -0.28400
C445        C  0.53784919  0.52792901  0.46738317    -0.04500
C446        C  0.52778850  0.51904225  0.46659010     0.07700
C447        C  0.52250419  0.52106446  0.45547408     0.01500
H448        H  0.54410248  0.52954269  0.47491662     0.09100
H449        H  0.51429733  0.51607089  0.45165435     0.08200
N450        N  0.55987988  0.56715299  0.44705794    -0.35600
N451        N  0.55633231  0.57367348  0.43748813    -0.27800
C452        C  0.56423133  0.58392643  0.43601036    -0.03000
C453        C  0.57321679  0.58390745  0.44505868     0.05600
C454        C  0.57019617  0.57313223  0.45190650     0.03700
H455        H  0.56350463  0.59082481  0.42879984     0.08800
H456        H  0.57508346  0.56988187  0.45983979     0.07600
N457        N  0.48485281  0.44937581  0.53759079    -0.26800
N458        N  0.49531984  0.45190573  0.54390203    -0.34600
C459        C  0.50333448  0.45949386  0.53753634     0.01600
C460        C  0.49768400  0.46194482  0.52665720     0.07600
C461        C  0.48596496  0.45534217  0.52698877    -0.05500
H462        H  0.51246300  0.46323100  0.54074509     0.08300
H463        H  0.47864917  0.45513384  0.52015139     0.09500
Cu464      Cu  0.49790247  0.44578655  0.56123845     0.44200
Cu465      Cu  0.46932029  0.43853826  0.54429756     0.42000
Cu466      Cu  0.47081878  0.43167127  0.57639001     0.43900
N467        N  0.49837116  0.44046768  0.57893603    -0.34200
N468        N  0.48827826  0.43589835  0.58480855    -0.28400
C469        C  0.49166834  0.43413656  0.59623957    -0.04500
C470        C  0.50455974  0.43761242  0.59749418     0.07700
C471        C  0.50847170  0.44151427  0.58634802     0.01500
H472        H  0.48531904  0.43038244  0.60305312     0.09100
H473        H  0.51791669  0.44511768  0.58383782     0.08200
N474        N  0.45564850  0.42613498  0.56529943    -0.35600
N475        N  0.45511566  0.42833464  0.55375075    -0.27800
C476        C  0.44428792  0.42276690  0.54940068    -0.03000
C477        C  0.43773455  0.41676814  0.55863159     0.05600
C478        C  0.44523253  0.41914299  0.56854778     0.03700
H479        H  0.44151755  0.42290574  0.54016716     0.08800
H480        H  0.44340960  0.41580583  0.57747939     0.07600
N481        N  0.96973227  0.53537888  0.55319221    -0.26800
N482        N  0.97868585  0.53104493  0.56056376    -0.34600
C483        C  0.98521099  0.52123987  0.55542616     0.01600
C484        C  0.98010178  0.51921179  0.54428944     0.07600
C485        C  0.97025098  0.52828656  0.54316771    -0.05500
H486        H  0.99332204  0.51622368  0.55940583     0.08300
H487        H  0.96431070  0.53002256  0.53544668     0.09500
Cu488      Cu  0.98266893  0.53925778  0.57681381     0.44200
Cu489      Cu  0.95830964  0.55170285  0.55667982     0.42000
Cu490      Cu  0.96793472  0.57023386  0.58280074     0.43900
N491        N  0.98695245  0.55023866  0.59157941    -0.34200
N492        N  0.98197566  0.56188387  0.59361801    -0.28400
C493        C  0.98738107  0.56679971  0.60349806    -0.04500
C494        C  0.99607231  0.55773236  0.60788628     0.07700
C495        C  0.99552278  0.54735190  0.60012132     0.01500
H496        H  0.98513533  0.57625261  0.60719899     0.09100
H497        H  0.00119243  0.53849819  0.60044418     0.08200
N498        N  0.95309501  0.57576960  0.57138986    -0.35600
N499        N  0.94940035  0.56898979  0.56201933    -0.27800
C500        C  0.93925488  0.57505753  0.55692773    -0.03000
C501        C  0.93644906  0.58618411  0.56339319     0.05600
C502        C  0.94544098  0.58630462  0.57247411     0.03700
H503        H  0.93424502  0.57155603  0.54915063     0.08800
H504        H  0.94623615  0.59340343  0.57951236     0.07600
N505        N  0.02351163  0.45072841  0.47306634    -0.26800
N506        N  0.01259420  0.45260586  0.46721495    -0.34600
C507        C  0.00477266  0.46029795  0.47363240     0.01600
C508        C  0.01101055  0.46343985  0.48405765     0.07600
C509        C  0.02287812  0.45719402  0.48343495    -0.05500
H510        H  0.99531188  0.46352439  0.47078502     0.08300
H511        H  0.03056107  0.45747255  0.48992519     0.09500
Cu512      Cu  0.00880308  0.44555590  0.45043648     0.44200
Cu513      Cu  0.03885124  0.43988045  0.46631394     0.42000
Cu514      Cu  0.03520266  0.43137798  0.43498131     0.43900
N515        N  0.00782565  0.44034645  0.43279441    -0.34200
N516        N  0.01787792  0.43587547  0.42682063    -0.28400
C517        C  0.01447201  0.43417017  0.41542716    -0.04500
C518        C  0.00158995  0.43755248  0.41429004     0.07700
C519        C  0.99766022  0.44137431  0.42545749     0.01500
H520        H  0.02077443  0.43037290  0.40859528     0.09100
H521        H  0.98817626  0.44483074  0.42802997     0.08200
N522        N  0.05049761  0.42551494  0.44550801    -0.35600
N523        N  0.05199103  0.42861364  0.45679745    -0.27800
C524        C  0.06272675  0.42272340  0.46091619    -0.03000
C525        C  0.06810628  0.41549166  0.45180600     0.05600
C526        C  0.06010681  0.41749580  0.44219584     0.03700
H527        H  0.06611392  0.42333422  0.46995967     0.08800
H528        H  0.06105481  0.41329996  0.43345251     0.07600
N529        N  0.84471841  0.65032861  0.55226452    -0.26800
N530        N  0.84902797  0.65597763  0.56201248    -0.34600
C531        C  0.86081604  0.65125859  0.56460811     0.01600
C532        C  0.86414992  0.64212001  0.55614101     0.07600
C533        C  0.85370579  0.64176951  0.54843025    -0.05500
H534        H  0.86636280  0.65403105  0.57232134     0.08300
H535        H  0.85259464  0.63556117  0.54076029     0.09500
Cu536      Cu  0.83841544  0.66912495  0.57198474     0.44200
Cu537      Cu  0.82634860  0.65412323  0.54533508     0.42000
Cu538      Cu  0.80447660  0.67129400  0.56568760     0.43900
N539        N  0.82585994  0.68096502  0.58138701    -0.34200
N540        N  0.81325077  0.68135386  0.57949339    -0.28400
C541        C  0.80787026  0.68996424  0.58703633    -0.04500
C542        C  0.81762005  0.69533289  0.59387184     0.07700
C543        C  0.82888116  0.68940730  0.59004657     0.01500
H544        H  0.79771271  0.69250216  0.58719517     0.09100
H545        H  0.83858225  0.69114348  0.59326324     0.08200
N546        N  0.79892313  0.66373241  0.54938128    -0.35600
N547        N  0.80694793  0.65827814  0.54169375    -0.27800
C548        C  0.80045733  0.65585659  0.53158537    -0.03000
C549        C  0.78773842  0.65980331  0.53305957     0.05600
C550        C  0.78711413  0.66468662  0.54444904     0.03700
H551        H  0.80468118  0.65151520  0.52375483     0.08800
H552        H  0.77881661  0.66911796  0.54868526     0.07600
N553        N  0.66304332  0.64979418  0.45751342    -0.26800
N554        N  0.65847416  0.65596255  0.44813179    -0.34600
C555        C  0.64683467  0.65107954  0.44533583     0.01600
C556        C  0.64389499  0.64130947  0.45329972     0.07600
C557        C  0.65437522  0.64074328  0.46092697    -0.05500
H558        H  0.64116911  0.65415748  0.43779043     0.08300
H559        H  0.65576612  0.63404163  0.46820808     0.09500
Cu560      Cu  0.66860267  0.66976128  0.43863429     0.44200
Cu561      Cu  0.68127379  0.65350358  0.46453585     0.42000
Cu562      Cu  0.70260457  0.67164679  0.44478414     0.43900
N563        N  0.68116885  0.68124505  0.42902681    -0.34200
N564        N  0.69379349  0.68143068  0.43084624    -0.28400
C565        C  0.69929399  0.68955504  0.42296741    -0.04500
C566        C  0.68961918  0.69481839  0.41598586     0.07700
C567        C  0.67825316  0.68934752  0.42006810     0.01500
H568        H  0.70951763  0.69176093  0.42259787     0.09100
H569        H  0.66858715  0.69104568  0.41674046     0.08200
N570        N  0.70825713  0.66417705  0.46108943    -0.35600
N571        N  0.70035300  0.65822220  0.46855592    -0.27800
C572        C  0.70674467  0.65581694  0.47871319    -0.03000
C573        C  0.71929409  0.66032600  0.47750591     0.05600
C574        C  0.71992033  0.66551075  0.46622133     0.03700
H575        H  0.70257883  0.65107746  0.48637618     0.08800
H576        H  0.72812076  0.67031224  0.46217168     0.07600
N577        N  0.84735983  0.35388138  0.95041319    -0.26800
N578        N  0.85120677  0.34902831  0.94014923    -0.34600
C579        C  0.86267838  0.35424717  0.93722986     0.01600
C580        C  0.86631758  0.36282032  0.94605262     0.07600
C581        C  0.85639261  0.36233214  0.95431420    -0.05500
H582        H  0.86783828  0.35213362  0.92911755     0.08300
H583        H  0.85557055  0.36801151  0.96234716     0.09500
Cu584      Cu  0.84056950  0.33618905  0.92992497     0.44200
Cu585      Cu  0.82934367  0.34964214  0.95781769     0.42000
Cu586      Cu  0.80728743  0.33291273  0.93735303     0.43900
N587        N  0.82807728  0.32438512  0.92046430    -0.34200
N588        N  0.81562531  0.32347897  0.92296294    -0.28400
C589        C  0.81007122  0.31513134  0.91531559    -0.04500
C590        C  0.81953346  0.31050139  0.90770345     0.07700
C591        C  0.83083279  0.31656910  0.91123679     0.01500
H592        H  0.79997595  0.31236791  0.91550345     0.09100
H593        H  0.84036517  0.31537993  0.90742655     0.08200
N594        N  0.80179270  0.34068258  0.95359184    -0.35600
N595        N  0.80985922  0.34595137  0.96132888    -0.27800
C596        C  0.80328184  0.34875302  0.97131606    -0.03000
C597        C  0.79046933  0.34527045  0.96969700     0.05600
C598        C  0.78987166  0.34024140  0.95836189     0.03700
H599        H  0.80750509  0.35307695  0.97914549     0.08800
H600        H  0.78149318  0.33608062  0.95405495     0.07600
N601        N  0.66737208  0.34923275  0.04749609    -0.26800
N602        N  0.66289122  0.34280719  0.05677798    -0.34600
C603        C  0.65162699  0.34817046  0.06022282     0.01600
C604        C  0.64881724  0.35847224  0.05274870     0.07600
C605        C  0.65900404  0.35884512  0.04475468    -0.05500
H606        H  0.64603906  0.34492954  0.06776888     0.08300
H607        H  0.66041163  0.36579258  0.03766757     0.09500
Cu608      Cu  0.67278644  0.32774025  0.06502264     0.44200
Cu609      Cu  0.68523733  0.34512646  0.03976857     0.42000
Cu610      Cu  0.70650940  0.32425162  0.05741576     0.43900
N611        N  0.68530429  0.31530429  0.07386183    -0.34200
N612        N  0.69783635  0.31460689  0.07158354    -0.28400
C613        C  0.70340064  0.30652864  0.07948147    -0.04500
C614        C  0.69386000  0.30178358  0.08693861     0.07700
C615        C  0.68251409  0.30750829  0.08309512     0.01500
H616        H  0.71358856  0.30411937  0.07965296     0.09100
H617        H  0.67298349  0.30638090  0.08692597     0.08200
N618        N  0.71208564  0.33351079  0.04179929    -0.35600
N619        N  0.70421807  0.34054453  0.03511615    -0.27800
C620        C  0.71070144  0.34457080  0.02543164    -0.03000
C621        C  0.72327740  0.34003127  0.02614628     0.05600
C622        C  0.72382103  0.33308494  0.03663487     0.03700
H623        H  0.70662971  0.35060026  0.01851630     0.08800
H624        H  0.73208679  0.32792572  0.04017435     0.07600
N625        N  0.99137251  0.43561084  0.92011545    -0.26800
N626        N  0.00132512  0.44010637  0.92620755    -0.34600
C627        C  0.01182204  0.44035886  0.91918667     0.01600
C628        C  0.00827696  0.43603068  0.90807473     0.07600
C629        C  0.99522710  0.43313529  0.90893194    -0.05500
H630        H  0.02128205  0.44370650  0.92191717     0.08300
H631        H  0.98908131  0.42923260  0.90204386     0.09500
Cu632      Cu  0.00002497  0.44637672  0.94359789     0.44200
Cu633      Cu  0.97343651  0.43224751  0.92787826     0.42000
Cu634      Cu  0.96960873  0.44170438  0.95898632     0.43900
N635        N  0.99642425  0.45318855  0.96055445    -0.34200
N636        N  0.98537456  0.45150937  0.96626280    -0.28400
C637        C  0.98624760  0.45723040  0.97697114    -0.04500
C638        C  0.99840112  0.46282610  0.97798759     0.07700
C639        C  0.00456200  0.46006643  0.96740782     0.01500
H640        H  0.97853568  0.45746184  0.98344880     0.09100
H641        H  0.01423033  0.46290466  0.96480704     0.08200
N642        N  0.95606650  0.43082880  0.94954094    -0.35600
N643        N  0.95754246  0.42745689  0.93830829    -0.27800
C644        C  0.94767520  0.41970072  0.93510671    -0.03000
C645        C  0.93956277  0.41808175  0.94474227     0.05600
C646        C  0.94514543  0.42532782  0.95373750     0.03700
H647        H  0.94672165  0.41526647  0.92646556     0.08800
H648        H  0.94179341  0.42615669  0.96278380     0.07600
N649        N  0.02601560  0.56094617  0.08772750    -0.26800
N650        N  0.02051674  0.54962146  0.08537239    -0.34600
C651        C  0.01123745  0.54729181  0.09346188     0.01600
C652        C  0.01083455  0.55768902  0.10125400     0.07600
C653        C  0.02032626  0.56617526  0.09733864    -0.05500
H654        H  0.00514638  0.53872865  0.09355341     0.08300
H655        H  0.02299780  0.57541331  0.10123658     0.09500
Cu656      Cu  0.02554067  0.53822270  0.07092086     0.44200
Cu657      Cu  0.04124341  0.56848943  0.07789008     0.42000
Cu658      Cu  0.05210439  0.54941129  0.05250713     0.43900
N659        N  0.03063282  0.52962763  0.05496773    -0.34200
N660        N  0.04028259  0.53362209  0.04818090    -0.28400
C661        C  0.04031994  0.52652106  0.03813956    -0.04500
C662        C  0.03016037  0.51771463  0.03863209     0.07700
C663        C  0.02427427  0.51996307  0.04944038     0.01500
H664        H  0.04696224  0.52798600  0.03085316     0.09100
H665        H  0.01574397  0.51521193  0.05292054     0.08200
N666        N  0.06120358  0.56638745  0.05836670    -0.35600
N667        N  0.05707877  0.57336741  0.06746840    -0.27800
C668        C  0.06491220  0.58370552  0.06890579    -0.03000
C669        C  0.07445889  0.58325306  0.06031957     0.05600
C670        C  0.07180820  0.57213530  0.05379268     0.03700
H671        H  0.06378316  0.59093180  0.07579895     0.08800
H672        H  0.07719782  0.56846106  0.04628785     0.07600
N673        N  0.53711446  0.45980734  0.04531374    -0.26800
N674        N  0.52808454  0.46408360  0.05266284    -0.34600
C675        C  0.52129183  0.47362100  0.04737765     0.01600
C676        C  0.52626807  0.47554473  0.03615426     0.07600
C677        C  0.53629504  0.46661856  0.03513301    -0.05500
H678        H  0.51330348  0.47875279  0.05145164     0.08300
H679        H  0.54251826  0.46514854  0.02754467     0.09500
Cu680      Cu  0.52481954  0.45663491  0.06942147     0.44200
Cu681      Cu  0.54999716  0.44470522  0.04948082     0.42000
Cu682      Cu  0.54210197  0.42752206  0.07671254     0.43900
N683        N  0.52123621  0.44590457  0.08456366    -0.34200
N684        N  0.52713586  0.43479591  0.08696013    -0.28400
C685        C  0.52205590  0.42970864  0.09690962    -0.04500
C686        C  0.51261371  0.43813187  0.10100610     0.07700
C687        C  0.51237271  0.44830663  0.09299674     0.01500
H688        H  0.52513890  0.42066231  0.10093362     0.09100
H689        H  0.50602944  0.45669026  0.09311771     0.08200
N690        N  0.55774781  0.42290037  0.06603708    -0.35600
N691        N  0.56085701  0.42908613  0.05615893    -0.27800
C692        C  0.57175427  0.42369884  0.05172226    -0.03000
C693        C  0.57563352  0.41369339  0.05920168     0.05600
C694        C  0.56650074  0.41351150  0.06814930     0.03700
H695        H  0.57653399  0.42689448  0.04370868     0.08800
H696        H  0.56625953  0.40709522  0.07574390     0.07600
N697        N  0.48700921  0.56279004  0.92152127    -0.26800
N698        N  0.49683554  0.55750615  0.92725784    -0.34600
C699        C  0.50679495  0.55588478  0.91976400     0.01600
C700        C  0.50307195  0.56017538  0.90869243     0.07600
C701        C  0.49042819  0.56446436  0.91007764    -0.05500
H702        H  0.51608722  0.55186123  0.92222161     0.08300
H703        H  0.48437804  0.56893962  0.90340567     0.09500
Cu704      Cu  0.49630226  0.55241638  0.94496727     0.44200
Cu705      Cu  0.47010767  0.56837593  0.93030355     0.42000
Cu706      Cu  0.46806406  0.56003075  0.96216171     0.43900
N707        N  0.49368554  0.54620498  0.96222963    -0.34200
N708        N  0.48333657  0.54892814  0.96864652    -0.28400
C709        C  0.48439904  0.54293390  0.97921710    -0.04500
C710        C  0.49594699  0.53605772  0.97938348     0.07700
C711        C  0.50156359  0.53838383  0.96847080     0.01500
H712        H  0.47713618  0.54325765  0.98611309     0.09100
H713        H  0.51057838  0.53445837  0.96515990     0.08200
N714        N  0.45464493  0.57144766  0.95316460    -0.35600
N715        N  0.45547177  0.57452116  0.94179586    -0.27800
C716        C  0.44576546  0.58272529  0.93908558    -0.03000
C717        C  0.43844594  0.58488582  0.94916678     0.05600
C718        C  0.44431544  0.57752995  0.95791180     0.03700
H719        H  0.44431380  0.58699131  0.93043062     0.08800
H720        H  0.44156983  0.57698875  0.96714554     0.07600
N721        N  0.34717527  0.64992903  0.95686352    -0.26800
N722        N  0.35151115  0.65587105  0.94726365    -0.34600
C723        C  0.36331978  0.65123122  0.94461067     0.01600
C724        C  0.36663118  0.64190411  0.95292767     0.07600
C725        C  0.35617511  0.64135425  0.96060150    -0.05500
H726        H  0.36890464  0.65417797  0.93696259     0.08300
H727        H  0.35497036  0.63486996  0.96807189     0.09500
Cu728      Cu  0.34080393  0.66919584  0.93750839     0.44200
Cu729      Cu  0.32868720  0.65308996  0.96358592     0.42000
Cu730      Cu  0.30679695  0.67128901  0.94398137     0.43900
N731        N  0.32807504  0.68076823  0.92795153    -0.34200
N732        N  0.31546173  0.68108639  0.92988387    -0.28400
C733        C  0.30996242  0.68929798  0.92204291    -0.04500
C734        C  0.31963483  0.69451117  0.91498074     0.07700
C735        C  0.33097058  0.68889336  0.91899192     0.01500
H736        H  0.29976729  0.69166856  0.92179939     0.09100
H737        H  0.34063727  0.69057431  0.91564927     0.08200
N738        N  0.30132104  0.66292745  0.96005039    -0.35600
N739        N  0.30934440  0.65692605  0.96738158    -0.27800
C740        C  0.30287874  0.65368142  0.97731396    -0.03000
C741        C  0.29016693  0.65766972  0.97611151     0.05600
C742        C  0.28951359  0.66344639  0.96506048     0.03700
H743        H  0.30711210  0.64870621  0.98481602     0.08800
H744        H  0.28115916  0.66804793  0.96108916     0.07600
N745        N  0.16573890  0.64828974  0.05148629    -0.26800
N746        N  0.16112593  0.65465927  0.06074400    -0.34600
C747        C  0.14939889  0.64990256  0.06351446     0.01600
C748        C  0.14642373  0.64000906  0.05565757     0.07600
C749        C  0.15700976  0.63925469  0.04812283    -0.05500
H750        H  0.14363306  0.65319102  0.07093223     0.08300
H751        H  0.15842203  0.63244138  0.04093101     0.09500
Cu752      Cu  0.17138884  0.66874892  0.06992940     0.44200
Cu753      Cu  0.18422261  0.65175503  0.04474912     0.42000
Cu754      Cu  0.20563854  0.67027657  0.06457573     0.43900
N755        N  0.18376124  0.68079985  0.07932496    -0.34200
N756        N  0.19644317  0.68092189  0.07781639    -0.28400
C757        C  0.20171846  0.68924165  0.08567044    -0.04500
C758        C  0.19183924  0.69468454  0.09233755     0.07700
C759        C  0.18060211  0.68913007  0.08804926     0.01500
H760        H  0.21195514  0.69128283  0.08637478     0.09100
H761        H  0.17085646  0.69077399  0.09121177     0.08200
N762        N  0.21154944  0.66158387  0.04882667    -0.35600
N763        N  0.20368252  0.65564930  0.04131629    -0.27800
C764        C  0.21037662  0.65250809  0.03148289    -0.03000
C765        C  0.22306666  0.65647003  0.03295448     0.05600
C766        C  0.22347399  0.66212726  0.04405734     0.03700
H767        H  0.20630117  0.64766744  0.02384056     0.08800
H768        H  0.23170039  0.66680614  0.04816664     0.07600
N769        N  0.21497390  0.77879904  0.21330188    -0.26800
N770        N  0.21965397  0.76969529  0.20620472    -0.34600
C771        C  0.22834175  0.76248085  0.21213660     0.01600
C772        C  0.22920313  0.76720892  0.22355291     0.07600
C773        C  0.22063305  0.77759774  0.22398848    -0.05500
H774        H  0.23329630  0.75411366  0.20848153     0.08300
H775        H  0.21835455  0.78356917  0.23160143     0.09500
Cu776      Cu  0.21310027  0.76620997  0.18924098     0.44200
Cu777      Cu  0.20030702  0.79166094  0.20829993     0.42000
Cu778      Cu  0.18489968  0.78371156  0.18004389     0.43900
N779        N  0.20321869  0.76194863  0.17384613    -0.34200
N780        N  0.19252265  0.76801664  0.17058826    -0.28400
C781        C  0.18799575  0.76238046  0.16064386    -0.04500
C782        C  0.19632865  0.75236604  0.15750038     0.07700
C783        C  0.20586857  0.75240763  0.16606279     0.01500
H784        H  0.17933404  0.76539183  0.15602394     0.09100
H785        H  0.21400020  0.74581551  0.16675789     0.08200
N786        N  0.17960360  0.79944380  0.19070928    -0.35600
N787        N  0.18517144  0.80241536  0.20090811    -0.27800
C788        C  0.17958039  0.81327047  0.20528718    -0.03000
C789        C  0.17005880  0.81733189  0.19747029     0.05600
C790        C  0.17036371  0.80831252  0.18835708     0.03700
H791        H  0.18233227  0.81791556  0.21350442     0.08800
H792        H  0.16440315  0.80824424  0.18049272     0.07600
N793        N  0.29423867  0.72029834  0.29538157    -0.26800
N794        N  0.28978635  0.72960752  0.30237694    -0.34600
C795        C  0.28074606  0.73645833  0.29651772     0.01600
C796        C  0.27944606  0.73122713  0.28529543     0.07600
C797        C  0.28812703  0.72097165  0.28488408    -0.05500
H798        H  0.27579571  0.74487599  0.30007856     0.08300
H799        H  0.29015647  0.71470711  0.27740755     0.09500
Cu800      Cu  0.29697458  0.73353037  0.31914682     0.44200
Cu801      Cu  0.30918679  0.70786863  0.30005168     0.42000
Cu802      Cu  0.32627127  0.71702815  0.32703913     0.43900
N803        N  0.30736619  0.73771904  0.33437885    -0.34200
N804        N  0.31850005  0.73211012  0.33704136    -0.28400
C805        C  0.32332677  0.73770217  0.34688715    -0.04500
C806        C  0.31472163  0.74718772  0.35063346     0.07700
C807        C  0.30470268  0.74688163  0.34252534     0.01500
H808        H  0.33238026  0.73501829  0.35102113     0.09100
H809        H  0.29627776  0.75313376  0.34234159     0.08200
N810        N  0.33136622  0.70139885  0.31631280    -0.35600
N811        N  0.32510773  0.69794098  0.30659917    -0.27800
C812        C  0.33067214  0.68717761  0.30206810    -0.03000
C813        C  0.34090199  0.68369730  0.30929516     0.05600
C814        C  0.34106183  0.69293658  0.31821423     0.03700
H815        H  0.32739598  0.68220101  0.29418064     0.08800
H816        H  0.34760226  0.69338367  0.32567253     0.07600
N817        N  0.40550093  0.40887100  0.20393834    -0.26800
N818        N  0.41242199  0.40332221  0.19545213    -0.34600
C819        C  0.40697669  0.39186962  0.19255069     0.01600
C820        C  0.39610775  0.39005613  0.19951885     0.07600
C821        C  0.39547878  0.40101599  0.20665383    -0.05500
H822        H  0.41058127  0.38544472  0.18570884     0.08300
H823        H  0.38816647  0.40324379  0.21320401     0.09500
Cu824      Cu  0.42854486  0.41159481  0.18742488     0.44200
Cu825      Cu  0.40958498  0.42715999  0.21116268     0.42000
Cu826      Cu  0.43502466  0.44445635  0.19595346     0.43900
N827        N  0.44265632  0.42294780  0.17938949    -0.34200
N828        N  0.44452627  0.43529273  0.18220353    -0.28400
C829        C  0.45351974  0.44039739  0.17497365    -0.04500
C830        C  0.45763115  0.43074344  0.16732161     0.07700
C831        C  0.45058189  0.41978591  0.17037278     0.01500
H832        H  0.45683188  0.45038605  0.17530459     0.09100
H833        H  0.45085768  0.41035512  0.16610798     0.08200
N834        N  0.42570794  0.45157134  0.21077962    -0.35600
N835        N  0.41611559  0.44558101  0.21629416    -0.27800
C836        C  0.41229487  0.45300761  0.22552456    -0.03000
C837        C  0.42005314  0.46401425  0.22586694     0.05600
C838        C  0.42844033  0.46273380  0.21642917     0.03700
H839        H  0.40475533  0.45039092  0.23173319     0.08800
H840        H  0.43601547  0.46942837  0.21384485     0.07600
N841        N  0.40440359  0.59087903  0.29937724    -0.26800
N842        N  0.41155214  0.59671129  0.30752574    -0.34600
C843        C  0.40631841  0.60832953  0.31010829     0.01600
C844        C  0.39537393  0.61001497  0.30327792     0.07600
C845        C  0.39444498  0.59878259  0.29651872    -0.05500
H846        H  0.41019901  0.61500120  0.31660558     0.08300
H847        H  0.38697732  0.59641806  0.29016846     0.09500
Cu848      Cu  0.42788075  0.58898332  0.31557930     0.44200
Cu849      Cu  0.40842043  0.57231438  0.29275800     0.42000
Cu850      Cu  0.43766883  0.55805545  0.30526853     0.43900
N851        N  0.44259232  0.57850843  0.32367993    -0.34200
N852        N  0.44592378  0.56678225  0.31996745    -0.28400
C853        C  0.45464519  0.56169734  0.32748392    -0.04500
C854        C  0.45702535  0.57070842  0.33632121     0.07700
C855        C  0.44926945  0.58131122  0.33360281     0.01500
H856        H  0.45878272  0.55205986  0.32666154     0.09100
H857        H  0.44812982  0.59013992  0.33873016     0.08200
N858        N  0.42724516  0.54986171  0.29149673    -0.35600
N859        N  0.41619482  0.55450107  0.28735218    -0.27800
C860        C  0.41165060  0.54623752  0.27905398    -0.03000
C861        C  0.42040597  0.53610254  0.27782930     0.05600
C862        C  0.43016872  0.53876118  0.28579364     0.03700
H863        H  0.40281775  0.54766516  0.27408937     0.08800
H864        H  0.43866498  0.53290346  0.28751635     0.07600
N865        N  0.19565951  0.23330498  0.33804738    -0.26800
N866        N  0.20626435  0.23952931  0.33478353    -0.34600
C867        C  0.20855731  0.24930512  0.34242878     0.01600
C868        C  0.19884441  0.24930934  0.35085879     0.07600
C869        C  0.19081718  0.23905502  0.34780070    -0.05500
H870        H  0.21647801  0.25613935  0.34167038     0.08300
H871        H  0.18212077  0.23597066  0.35233538     0.09500
Cu872      Cu  0.21613671  0.23526111  0.31933537     0.44200
Cu873      Cu  0.18845687  0.21724338  0.32897588     0.42000
Cu874      Cu  0.20316695  0.20933899  0.30069722     0.43900
N875        N  0.22171285  0.23192511  0.30201496    -0.34200
N876        N  0.21690003  0.22269773  0.29514161    -0.28400
C877        C  0.22207557  0.22383432  0.28425698    -0.04500
C878        C  0.23050654  0.23429543  0.28432188     0.07700
C879        C  0.23002932  0.23918512  0.29570410     0.01500
H880        H  0.21973583  0.21760442  0.27683761     0.09100
H881        H  0.23517381  0.24753217  0.29914976     0.08200
N882        N  0.18911110  0.19797829  0.30870348    -0.35600
N883        N  0.18366760  0.20094154  0.31895725    -0.27800
C884        C  0.17505968  0.19162397  0.32176663    -0.03000
C885        C  0.17510438  0.18234540  0.31287426     0.05600
C886        C  0.18412941  0.18668834  0.30472932     0.03700
H887        H  0.16933008  0.19156009  0.32978406     0.08800
H888        H  0.18694571  0.18197628  0.29655558     0.07600
N889        N  0.29189324  0.28182918  0.21024920    -0.26800
N890        N  0.28761628  0.27225686  0.20347094    -0.34600
C891        C  0.27967691  0.26462610  0.20984453     0.01600
C892        C  0.27892989  0.26960351  0.22118934     0.07600
C893        C  0.28675103  0.28054220  0.22113465    -0.05500
H894        H  0.27518184  0.25583952  0.20653988     0.08300
H895        H  0.28891841  0.28684551  0.22854587     0.09500
Cu896      Cu  0.29400959  0.26871741  0.18641690     0.44200
Cu897      Cu  0.30562806  0.29530717  0.20480938     0.42000
Cu898      Cu  0.32274294  0.28578117  0.17790606     0.43900
N899        N  0.30453233  0.26407692  0.17141739    -0.34200
N900        N  0.31555805  0.26980044  0.16858129    -0.28400
C901        C  0.32059772  0.26375945  0.15902964    -0.04500
C902        C  0.31221370  0.25390120  0.15565393     0.07700
C903        C  0.30213561  0.25442433  0.16368549     0.01500
H904        H  0.32959627  0.26643991  0.15478345     0.09100
H905        H  0.29384178  0.24801723  0.16410320     0.08200
N906        N  0.32732389  0.30210345  0.18808772    -0.35600
N907        N  0.32099106  0.30575464  0.19772044    -0.27800
C908        C  0.32646608  0.31667188  0.20205511    -0.03000
C909        C  0.33677232  0.32001202  0.19482533     0.05600
C910        C  0.33699980  0.31056679  0.18607744     0.03700
H911        H  0.32330249  0.32166119  0.20998439     0.08800
H912        H  0.34372107  0.30984484  0.17876348     0.07600
N913        N  0.11510795  0.08711651  0.30742676    -0.26800
N914        N  0.10975917  0.09112367  0.31741808    -0.34600
C915        C  0.11540435  0.10226601  0.32084049     0.01600
C916        C  0.12479151  0.10549965  0.31263218     0.07600
C917        C  0.12436704  0.09567182  0.30422364    -0.05500
H918        H  0.11265547  0.10772887  0.32863583     0.08300
H919        H  0.13015866  0.09490707  0.29627114     0.09500
Cu920      Cu  0.09437938  0.08202533  0.32569332     0.44200
Cu921      Cu  0.10880524  0.07053640  0.29856352     0.42000
Cu922      Cu  0.07721251  0.05829053  0.30907456     0.43900
N923        N  0.07746765  0.07352547  0.33165862    -0.34200
N924        N  0.07064618  0.06521456  0.32528970    -0.28400
C925        C  0.06005918  0.06170532  0.33148802    -0.04500
C926        C  0.06038219  0.06804044  0.34231881     0.07700
C927        C  0.07155094  0.07542835  0.34211040     0.01500
H928        H  0.05294368  0.05470877  0.32851998     0.09100
H929        H  0.07514371  0.08173394  0.34903935     0.08200
N930        N  0.08761119  0.05057015  0.29496012    -0.35600
N931        N  0.09923903  0.05447301  0.29154050    -0.27800
C932        C  0.10355907  0.04643050  0.28297782    -0.03000
C933        C  0.09413530  0.03716787  0.28084120     0.05600
C934        C  0.08416973  0.04011633  0.28854023     0.03700
H935        H  0.11285654  0.04727922  0.27863981     0.08800
H936        H  0.07524994  0.03476236  0.28972212     0.07600
N937        N  0.10757128  0.91113686  0.20480737    -0.26800
N938        N  0.10078323  0.90636188  0.19587385    -0.34600
C939        C  0.10561349  0.89466492  0.19284201     0.01600
C940        C  0.11588804  0.89182201  0.20024129     0.07600
C941        C  0.11684403  0.90247090  0.20774392    -0.05500
H942        H  0.10186200  0.88865956  0.18576522     0.08300
H943        H  0.12385885  0.90390714  0.21472213     0.09500
Cu944      Cu  0.08513298  0.91560453  0.18798679     0.44200
Cu945      Cu  0.10403360  0.92937875  0.21243416     0.42000
Cu946      Cu  0.07676729  0.94673275  0.19919321     0.43900
N947        N  0.07016615  0.92668473  0.18104470    -0.34200
N948        N  0.06729690  0.93843551  0.18500700    -0.28400
C949        C  0.05787653  0.94358859  0.17825915    -0.04500
C950        C  0.05459642  0.93455541  0.16969045     0.07700
C951        C  0.06253314  0.92393648  0.17174656     0.01500
H952        H  0.05386761  0.95324317  0.17941325     0.09100
H953        H  0.06309802  0.91507635  0.16658955     0.08200
N954        N  0.08718521  0.95338153  0.21354280    -0.35600
N955        N  0.09737738  0.94754210  0.21824071    -0.27800
C956        C  0.10169495  0.95484730  0.22736273    -0.03000
C957        C  0.09364415  0.96558200  0.22848426     0.05600
C958        C  0.08459102  0.96429389  0.21961453     0.03700
H959        H  0.10975768  0.95229319  0.23300622     0.08800
H960        H  0.07663797  0.97081605  0.21769932     0.07600
N961        N  0.52788119  0.94120572  0.91717192    -0.26800
N962        N  0.51811261  0.94665818  0.92288812    -0.34600
C963        C  0.50784353  0.94732447  0.91563460     0.01600
C964        C  0.51133995  0.94221202  0.90477874     0.07600
C965        C  0.52413099  0.93845429  0.90602169    -0.05500
H966        H  0.49855759  0.95139725  0.91805850     0.08300
H967        H  0.53013882  0.93374037  0.89944379     0.09500
Cu968      Cu  0.51926038  0.95361595  0.94008979     0.44200
Cu969      Cu  0.54537806  0.93694073  0.92533216     0.42000
Cu970      Cu  0.54915459  0.94858474  0.95579143     0.43900
N971        N  0.52320590  0.96196525  0.95641554    -0.34200
N972        N  0.53423787  0.96034517  0.96214169    -0.28400
C973        C  0.53391017  0.96742665  0.97218482    -0.04500
C974        C  0.52210081  0.97380092  0.97278477     0.07700
C975        C  0.51558034  0.97009457  0.96263138     0.01500
H976        H  0.54171670  0.96791842  0.97853834     0.09100
H977        H  0.50604000  0.97317588  0.95987190     0.08200
N978        N  0.56201205  0.93591791  0.94742712    -0.35600
N979        N  0.56059852  0.93180457  0.93639781    -0.27800
C980        C  0.56996183  0.92312917  0.93393713    -0.03000
C981        C  0.57766668  0.92167429  0.94386139     0.05600
C982        C  0.57237949  0.92996985  0.95223870     0.03700
H983        H  0.57082577  0.91796301  0.92562635     0.08800
H984        H  0.57552890  0.93125087  0.96129497     0.07600
N985        N  0.48137372  0.04474617  0.04362355    -0.26800
N986        N  0.49243055  0.04303963  0.04928028    -0.34600
C987        C  0.50009606  0.03512799  0.04290398     0.01600
C988        C  0.49358003  0.03160763  0.03271331     0.07600
C989        C  0.48173384  0.03792103  0.03342932    -0.05500
H990        H  0.50956480  0.03186542  0.04569615     0.08300
H991        H  0.47383732  0.03734410  0.02717531     0.09500
Cu992      Cu  0.49619223  0.05028073  0.06599526     0.44200
Cu993      Cu  0.46621427  0.05567683  0.05070246     0.42000
Cu994      Cu  0.47062487  0.06591794  0.08182836     0.43900
N995        N  0.49753622  0.05535800  0.08365226    -0.34200
N996        N  0.48797126  0.06062802  0.08976549    -0.28400
C997        C  0.49182186  0.06222935  0.10107725    -0.04500
C998        C  0.50446707  0.05786779  0.10200144     0.07700
C999        C  0.50775813  0.05361584  0.09079556     0.01500
H1000       H  0.48602750  0.06664302  0.10797881     0.09100
H1001       H  0.51692326  0.04954672  0.08800729     0.08200
N1002       N  0.45476214  0.07065382  0.07137936    -0.35600
N1003       N  0.45305967  0.06696123  0.06025416    -0.27800
C1004       C  0.44183503  0.07198909  0.05626564    -0.03000
C1005       C  0.43626877  0.07921387  0.06528264     0.05600
C1006       C  0.44473135  0.07813897  0.07470818     0.03700
H1007       H  0.43814222  0.07065720  0.04738995     0.08800
H1008       H  0.44376792  0.08257460  0.08335194     0.07600
N1009       N  0.84792933  0.85305271  0.04917929    -0.26800
N1010       N  0.85350265  0.84538123  0.05705962    -0.34600
C1011       C  0.86534698  0.84999791  0.05954319     0.01600
C1012       C  0.86734057  0.86116481  0.05294270     0.07600
C1013       C  0.85610823  0.86280067  0.04642112    -0.05500
H1014       H  0.87175282  0.84584491  0.06610182     0.08300
H1015       H  0.85382215  0.87075995  0.04050232     0.09500
Cu1016     Cu  0.84405278  0.83021497  0.06545238     0.44200
Cu1017     Cu  0.82894912  0.85041967  0.04376055     0.42000
Cu1018     Cu  0.80911807  0.82995504  0.06309610     0.43900
N1019       N  0.83222204  0.81833889  0.07554061    -0.34200
N1020       N  0.81944143  0.81876872  0.07521488    -0.28400
C1021       C  0.81471044  0.81073503  0.08358302    -0.04500
C1022       C  0.82501760  0.80491216  0.08934449     0.07700
C1023       C  0.83596324  0.80992453  0.08399678     0.01500
H1024       H  0.80452594  0.80923702  0.08531757     0.09100
H1025       H  0.84591937  0.80798386  0.08635974     0.08200
N1026       N  0.80212978  0.83959867  0.04820392    -0.35600
N1027       N  0.80953626  0.84641836  0.04092238    -0.27800
C1028       C  0.80251132  0.85004563  0.03147605    -0.03000
C1029       C  0.79005448  0.84545607  0.03293089     0.05600
C1030       C  0.79011102  0.83892173  0.04364548     0.03700
H1031       H  0.80625994  0.85549208  0.02402419     0.08800
H1032       H  0.78220591  0.83349773  0.04753587     0.07600
N1033       N  0.66615467  0.85375022  0.95702857    -0.26800
N1034       N  0.66161827  0.84761430  0.94762377    -0.34600
C1035       C  0.65017780  0.85283985  0.94460287     0.01600
C1036       C  0.64731829  0.86273768  0.95248870     0.07600
C1037       C  0.65765591  0.86304676  0.96028276    -0.05500
H1038       H  0.64450732  0.84979127  0.93705442     0.08300
H1039       H  0.65909214  0.86976297  0.96754428     0.09500
Cu1040     Cu  0.67148582  0.83300215  0.93873371     0.44200
Cu1041     Cu  0.68414457  0.84958902  0.96422345     0.42000
Cu1042     Cu  0.70522243  0.82925067  0.94565566     0.43900
N1043       N  0.68351379  0.82006240  0.92992837    -0.34200
N1044       N  0.69604847  0.81909398  0.93206707    -0.28400
C1045       C  0.70117803  0.81019263  0.92466721    -0.04500
C1046       C  0.69136566  0.80524041  0.91763658     0.07700
C1047       C  0.68029821  0.81171282  0.92122910     0.01500
H1048       H  0.71125087  0.80733362  0.92460391     0.09100
H1049       H  0.67063840  0.81055378  0.91770754     0.08200
N1050       N  0.71092623  0.83803727  0.96145350    -0.35600
N1051       N  0.70304431  0.84467479  0.96846303    -0.27800
C1052       C  0.70940528  0.84797360  0.97840179    -0.03000
C1053       C  0.72193191  0.84340558  0.97752560     0.05600
C1054       C  0.72260347  0.83720344  0.96667133     0.03700
H1055       H  0.70525697  0.85346485  0.98564818     0.08800
H1056       H  0.73084644  0.83211055  0.96299631     0.07600
N1057       N  0.97506128  0.96540195  0.04740189    -0.26800
N1058       N  0.98434589  0.96960669  0.05448736    -0.34600
C1059       C  0.99071984  0.97938826  0.04915471     0.01600
C1060       C  0.98520532  0.98150902  0.03817909     0.07600
C1061       C  0.97526065  0.97250451  0.03736457    -0.05500
H1062       H  0.99895800  0.98438224  0.05291941     0.08300
H1063       H  0.96889416  0.97094827  0.02990242     0.09500
Cu1064     Cu  0.98881519  0.96142299  0.07073705     0.44200
Cu1065     Cu  0.96319587  0.94958558  0.05146997     0.42000
Cu1066     Cu  0.97319199  0.93116782  0.07745231     0.43900
N1067       N  0.99304859  0.95050691  0.08565444    -0.34200
N1068       N  0.98776548  0.93902028  0.08776625    -0.28400
C1069       C  0.99290126  0.93403590  0.09771270    -0.04500
C1070       C  0.00170071  0.94291215  0.10214536     0.07700
C1071       C  0.00154366  0.95326138  0.09431785     0.01500
H1072       H  0.99022748  0.92476297  0.10155248     0.09100
H1073       H  0.00733641  0.96202168  0.09475072     0.08200
N1074       N  0.95728363  0.92650071  0.06718247    -0.35600
N1075       N  0.95341670  0.93325901  0.05785975    -0.27800
C1076       C  0.94241943  0.92793408  0.05367971    -0.03000
C1077       C  0.93927641  0.91733232  0.06070822     0.05600
C1078       C  0.94892638  0.91671662  0.06915155     0.03700
H1079       H  0.93710013  0.93155898  0.04612215     0.08800
H1080       H  0.94971986  0.90981453  0.07635398     0.07600
N1081       N  0.02139104  0.06953428  0.92203449    -0.26800
N1082       N  0.01202485  0.06289650  0.92723385    -0.34600
C1083       C  0.00228257  0.06120925  0.91955432     0.01600
C1084       C  0.00573776  0.06692381  0.90896406     0.07600
C1085       C  0.01793178  0.07207886  0.91077968    -0.05500
H1086       H  0.99333950  0.05620204  0.92156561     0.08300
H1087       H  0.02364971  0.07765207  0.90455372     0.09500
Cu1088     Cu  0.01279215  0.05627381  0.94443401     0.44200
Cu1089     Cu  0.03785148  0.07550191  0.93095701     0.42000
Cu1090     Cu  0.04143263  0.06367736  0.96131627     0.43900
N1091       N  0.01589213  0.04954373  0.96138749    -0.34200
N1092       N  0.02639078  0.05209885  0.96763639    -0.28400
C1093       C  0.02550723  0.04592671  0.97813030    -0.04500
C1094       C  0.01390870  0.03916697  0.97842859     0.07700
C1095       C  0.00807592  0.04170528  0.96767003     0.01500
H1096       H  0.03284797  0.04620798  0.98494237     0.09100
H1097       H  0.99891581  0.03798087  0.96452419     0.08200
N1098       N  0.05447341  0.07617184  0.95301574    -0.35600
N1099       N  0.05294762  0.08060304  0.94210297    -0.27800
C1100       C  0.06261513  0.08888729  0.93956386    -0.03000
C1101       C  0.07068924  0.08968134  0.94928993     0.05600
C1102       C  0.06526816  0.08146083  0.95765534     0.03700
H1103       H  0.06365670  0.09394068  0.93121269     0.08800
H1104       H  0.06875770  0.07963946  0.96652991     0.07600
N1105       N  0.34285080  0.14122545  0.05662702    -0.26800
N1106       N  0.34742730  0.14749169  0.06595488    -0.34600
C1107       C  0.35864066  0.14196279  0.06927310     0.01600
C1108       C  0.36131274  0.13179106  0.06162461     0.07600
C1109       C  0.35110967  0.13159982  0.05370104    -0.05500
H1110       H  0.36443292  0.14518183  0.07668694     0.08300
H1111       H  0.34970504  0.12488988  0.04643003     0.09500
Cu1112     Cu  0.33824579  0.16316803  0.07396408     0.44200
Cu1113     Cu  0.32538873  0.14585104  0.04859294     0.42000
Cu1114     Cu  0.30549006  0.16912627  0.06480477     0.43900
N1115       N  0.32657031  0.17730548  0.08160515    -0.34200
N1116       N  0.31434548  0.17912679  0.07860506    -0.28400
C1117       C  0.30922231  0.18840233  0.08561759    -0.04500
C1118       C  0.31873073  0.19269169  0.09331941     0.07700
C1119       C  0.32960632  0.18547155  0.09049568     0.01500
H1120       H  0.29933940  0.19182226  0.08508709     0.09100
H1121       H  0.33895475  0.18587297  0.09477521     0.08200
N1122       N  0.29967556  0.15970692  0.04940862    -0.35600
N1123       N  0.30714472  0.15181193  0.04314975    -0.27800
C1124       C  0.30084969  0.14833277  0.03320488    -0.03000
C1125       C  0.28878912  0.15414864  0.03334517     0.05600
C1126       C  0.28834260  0.16122712  0.04374393     0.03700
H1127       H  0.30470758  0.14192332  0.02646493     0.08800
H1128       H  0.28050243  0.16735183  0.04680293     0.07600
N1129       N  0.16684480  0.14754594  0.95496207    -0.26800
N1130       N  0.16290465  0.15325442  0.94510211    -0.34600
C1131       C  0.15100718  0.14891994  0.94241455     0.01600
C1132       C  0.14721518  0.14004299  0.95096173     0.07600
C1133       C  0.15750091  0.13940338  0.95880148    -0.05500
H1134       H  0.14558411  0.15194397  0.93470344     0.08300
H1135       H  0.15824050  0.13334687  0.96661095     0.09500
Cu1136     Cu  0.17380302  0.16648497  0.93536044     0.44200
Cu1137     Cu  0.18505177  0.15074682  0.96226971     0.42000
Cu1138     Cu  0.20715636  0.16913085  0.94324875     0.43900
N1139       N  0.18651429  0.17913728  0.92690484    -0.34200
N1140       N  0.19893156  0.17980469  0.92959965    -0.28400
C1141       C  0.20462771  0.18882823  0.92270020    -0.04500
C1142       C  0.19532193  0.19417945  0.91535783     0.07700
C1143       C  0.18394216  0.18780867  0.91827299     0.01500
H1144       H  0.21473933  0.19148054  0.92318629     0.09100
H1145       H  0.17449544  0.18933269  0.91439893     0.08200
N1146       N  0.21250210  0.16033878  0.95903280    -0.35600
N1147       N  0.20437022  0.15438683  0.96629545    -0.27800
C1148       C  0.21074306  0.15107186  0.97624223    -0.03000
C1149       C  0.22349696  0.15494929  0.97507381     0.05600
C1150       C  0.22428190  0.16073789  0.96405817     0.03700
H1151       H  0.20641555  0.14616651  0.98374243     0.08800
H1152       H  0.23266429  0.16538289  0.96017167     0.07600
N1153       N  0.31959002  0.77034359  0.83874508    -0.26800
N1154       N  0.30933333  0.76375949  0.83516334    -0.34600
C1155       C  0.30616320  0.75487943  0.84340952     0.01600
C1156       C  0.31490810  0.75577953  0.85261865     0.07600
C1157       C  0.32332436  0.76568284  0.84937209    -0.05500
H1158       H  0.29834913  0.74794517  0.84252697     0.08300
H1159       H  0.33159741  0.76916113  0.85430362     0.09500
Cu1160     Cu  0.30085327  0.76620049  0.81873116     0.44200
Cu1161     Cu  0.32776124  0.78524530  0.82865967     0.42000
Cu1162     Cu  0.31422209  0.79045640  0.79899784     0.43900
N1163       N  0.29508540  0.76849837  0.80131627    -0.34200
N1164       N  0.30004550  0.77720709  0.79398259    -0.50800
C1165       C  0.29456694  0.77571920  0.78325189    -0.04500
C1166       C  0.28574238  0.76559730  0.78390907     0.07700
C1167       C  0.28633023  0.76126968  0.79549133     0.01500
H1168       H  0.29690625  0.78153026  0.77555313     0.09100
H1169       H  0.28094767  0.75331539  0.79938929     0.08200
N1170       N  0.32832034  0.80222907  0.80658663    -0.35600
N1171       N  0.33322879  0.80025581  0.81725910    -0.27800
C1172       C  0.34188664  0.80968065  0.81957914    -0.03000
C1173       C  0.34247694  0.81800092  0.80994450     0.05600
C1174       C  0.33374713  0.81297505  0.80186133     0.03700
H1175       H  0.34722343  0.81047554  0.82777833     0.08800
H1176       H  0.33139255  0.81689687  0.79323641     0.07600
N1177       N  0.19668220  0.73022420  0.67057225    -0.26800
N1178       N  0.20825475  0.73502915  0.67292693    -0.34600
C1179       C  0.21124256  0.74416738  0.66484315     0.01600
C1180       C  0.20102067  0.74526298  0.65703004     0.07600
C1181       C  0.19193926  0.73628668  0.66092774    -0.05500
H1182       H  0.22002566  0.74989086  0.66491753     0.08300
H1183       H  0.18255280  0.73435269  0.65708759     0.09500
Cu1184     Cu  0.21874196  0.73006986  0.68780501     0.44200
Cu1185     Cu  0.18807493  0.71569775  0.68084189     0.42000
Cu1186     Cu  0.20447501  0.70704185  0.70838308     0.43900
N1187       N  0.22539068  0.72724637  0.70484017    -0.34200
N1188       N  0.22008725  0.71910634  0.71251095    -0.28400
C1189       C  0.22577193  0.72080580  0.72312465    -0.04500
C1190       C  0.23502899  0.73050342  0.72204639     0.07700
C1191       C  0.23454235  0.73430862  0.71032254     0.01500
H1192       H  0.22303021  0.71568185  0.73110938     0.09100
H1193       H  0.24000363  0.74205528  0.70617651     0.08200
N1194       N  0.18830410  0.69720162  0.70185100    -0.35600
N1195       N  0.18227483  0.70052969  0.69196641    -0.27800
C1196       C  0.17231037  0.69232319  0.69019865    -0.03000
C1197       C  0.17203187  0.68334787  0.69935396     0.05600
C1198       C  0.18233159  0.68674036  0.70658040     0.03700
H1199       H  0.16587511  0.69275403  0.68266375     0.08800
H1200       H  0.18531074  0.68193554  0.71465682     0.07600
N1201       N  0.12026100  0.41365292  0.80691523    -0.26800
N1202       N  0.11522716  0.40937263  0.81695715    -0.34600
C1203       C  0.12113550  0.39826760  0.82011954     0.01600
C1204       C  0.13036211  0.39524605  0.81168876     0.07600
C1205       C  0.12956962  0.40523366  0.80341170    -0.05500
H1206       H  0.11863459  0.39264925  0.82789306     0.08300
H1207       H  0.13518536  0.40621057  0.79537410     0.09500
Cu1208     Cu  0.09982969  0.41791524  0.82573510     0.44200
Cu1209     Cu  0.11345784  0.43055823  0.79854115     0.42000
Cu1210     Cu  0.08190487  0.44180781  0.80998445     0.43900
N1211       N  0.08301233  0.42612171  0.83230821    -0.34200
N1212       N  0.07591628  0.43447871  0.82623530    -0.28400
C1213       C  0.06545350  0.43773716  0.83271835    -0.04500
C1214       C  0.06614240  0.43120476  0.84342805     0.07700
C1215       C  0.07740424  0.42395928  0.84286640     0.01500
H1216       H  0.05814484  0.44466416  0.83000350     0.09100
H1217       H  0.08122446  0.41753667  0.84960830     0.08200
N1218       N  0.09176415  0.45033140  0.79593539    -0.35600
N1219       N  0.10344571  0.44692692  0.79221831    -0.27800
C1220       C  0.10735847  0.45556442  0.78393790    -0.03000
C1221       C  0.09758917  0.46464597  0.78228457     0.05600
C1222       C  0.08787265  0.46096949  0.78998193     0.03700
H1223       H  0.11658445  0.45521788  0.77941838     0.08800
H1224       H  0.07880593  0.46596976  0.79149992     0.07600
N1225       N  0.10832940  0.59051318  0.70605356    -0.26800
N1226       N  0.10120424  0.59576319  0.69756887    -0.34600
C1227       C  0.10578418  0.60771280  0.69506609     0.01600
C1228       C  0.11627625  0.61020648  0.70232438     0.07600
C1229       C  0.11762097  0.59907330  0.70917977    -0.05500
H1230       H  0.10170446  0.61413423  0.68845516     0.08300
H1231       H  0.12478485  0.59732347  0.71597127     0.09500
Cu1232     Cu  0.08539226  0.58676253  0.68965650     0.44200
Cu1233     Cu  0.10471687  0.57207796  0.71325511     0.42000
Cu1234     Cu  0.07662109  0.55545897  0.70082676     0.43900
N1235       N  0.07048193  0.57569762  0.68251273    -0.34200
N1236       N  0.06760676  0.56389745  0.68637341    -0.28400
C1237       C  0.05820117  0.55883616  0.67955836    -0.04500
C1238       C  0.05487365  0.56797868  0.67110458     0.07700
C1239       C  0.06280014  0.57857799  0.67325608     0.01500
H1240       H  0.05405294  0.54924752  0.68072638     0.09100
H1241       H  0.06321507  0.58756207  0.66826178     0.08200
N1242       N  0.08679176  0.54892005  0.71546284    -0.35600
N1243       N  0.09732818  0.55449786  0.71975989    -0.27800
C1244       C  0.10156661  0.54741610  0.72905165    -0.03000
C1245       C  0.09314967  0.53707239  0.73074595     0.05600
C1246       C  0.08391597  0.53837364  0.72199410     0.03700
H1247       H  0.10995368  0.54979650  0.73434639     0.08800
H1248       H  0.07576429  0.53201504  0.72037411     0.07600
N1249       N  0.40023965  0.08703438  0.69998385    -0.26800
N1250       N  0.40569407  0.09124586  0.69011064    -0.34600
C1251       C  0.39977384  0.10219547  0.68657147     0.01600
C1252       C  0.39012893  0.10508829  0.69460488     0.07600
C1253       C  0.39068561  0.09530661  0.70303785    -0.05500
H1254       H  0.40241523  0.10766938  0.67875130     0.08300
H1255       H  0.38458303  0.09422876  0.71076251     0.09500
Cu1256     Cu  0.42107754  0.08235829  0.68179043     0.44200
Cu1257     Cu  0.40623385  0.07022304  0.70862678     0.42000
Cu1258     Cu  0.43678726  0.05673715  0.69697719     0.43900
N1259       N  0.43709097  0.07297471  0.67507795    -0.34200
N1260       N  0.44342580  0.06381844  0.68088591    -0.28400
C1261       C  0.45360997  0.05993760  0.67430925    -0.04500
C1262       C  0.45347855  0.06693683  0.66382495     0.07700
C1263       C  0.44286772  0.07506145  0.66460888     0.01500
H1264       H  0.46036106  0.05237362  0.67682408     0.09100
H1265       H  0.43963486  0.08207439  0.65809951     0.08200
N1266       N  0.42665206  0.04936777  0.71134489    -0.35600
N1267       N  0.41537133  0.05372287  0.71525223    -0.27800
C1268       C  0.41128438  0.04594977  0.72411518    -0.03000
C1269       C  0.42053785  0.03641325  0.72592053     0.05600
C1270       C  0.43011389  0.03889556  0.71770971     0.03700
H1271       H  0.40235098  0.04726092  0.72897150     0.08800
H1272       H  0.43885303  0.03331894  0.71625376     0.07600
N1273       N  0.40169299  0.91387526  0.80314195    -0.26800
N1274       N  0.40621611  0.91034771  0.81360864    -0.34600
C1275       C  0.40063581  0.89912685  0.81688487     0.01600
C1276       C  0.39219496  0.89527861  0.80807424     0.07600
C1277       C  0.39307075  0.90487473  0.79946421    -0.05500
H1278       H  0.40290196  0.89396220  0.82496851     0.08300
H1279       H  0.38803989  0.90517499  0.79107402     0.09500
Cu1280     Cu  0.42082262  0.91981328  0.82267349     0.44200
Cu1281     Cu  0.40829288  0.93043807  0.79437639     0.42000
Cu1282     Cu  0.43922661  0.94255801  0.80591672     0.43900
N1283       N  0.43764977  0.92821309  0.82895379    -0.34200
N1284       N  0.44496761  0.93598077  0.82246148    -0.28400
C1285       C  0.45545271  0.93943961  0.82878758    -0.04500
C1286       C  0.45453502  0.93369362  0.83983419     0.07700
C1287       C  0.44312728  0.92667909  0.83965078     0.01500
H1288       H  0.46288689  0.94606233  0.82575137     0.09100
H1289       H  0.43911914  0.92085584  0.84674699     0.08200
N1290       N  0.42944282  0.95059286  0.79164172    -0.35600
N1291       N  0.41794068  0.94674269  0.78787211    -0.27800
C1292       C  0.41380644  0.95505682  0.77945812    -0.03000
C1293       C  0.42323187  0.96443336  0.77777918     0.05600
C1294       C  0.43301434  0.96127519  0.78558825     0.03700
H1295       H  0.40462506  0.95432359  0.77491854     0.08800
H1296       H  0.44185044  0.96665829  0.78712402     0.07600
N1297       N  0.22800004  0.28120879  0.79748299    -0.26800
N1298       N  0.23225657  0.27152541  0.80416271    -0.34600
C1299       C  0.24099428  0.26459397  0.79796739     0.01600
C1300       C  0.24231065  0.27015134  0.78685807     0.07600
C1301       C  0.23394233  0.28068402  0.78687499    -0.05500
H1302       H  0.24575092  0.25591688  0.80121843     0.08300
H1303       H  0.23201237  0.28727442  0.77961391     0.09500
Cu1304     Cu  0.22535643  0.26735695  0.82107898     0.44200
Cu1305     Cu  0.21365617  0.29420017  0.80272795     0.42000
Cu1306     Cu  0.19770802  0.28603254  0.83041033     0.43900
N1307       N  0.21541718  0.26374048  0.83678642    -0.34200
N1308       N  0.20487064  0.27018289  0.83990680    -0.28400
C1309       C  0.20010037  0.26492957  0.84993356    -0.04500
C1310       C  0.20813312  0.25482407  0.85338314     0.07700
C1311       C  0.21777271  0.25438000  0.84486596     0.01500
H1312       H  0.19146830  0.26828278  0.85441994     0.09100
H1313       H  0.22568057  0.24749360  0.84436636     0.08200
N1314       N  0.19282736  0.30207115  0.81999408    -0.35600
N1315       N  0.19863115  0.30511490  0.80992372    -0.27800
C1316       C  0.19321005  0.31602837  0.80550926    -0.03000
C1317       C  0.18353986  0.32005604  0.81318311     0.05600
C1318       C  0.18360008  0.31097342  0.82225716     0.03700
H1319       H  0.19614113  0.32069746  0.79734919     0.08800
H1320       H  0.17741993  0.31082806  0.82998785     0.07600
N1321       N  0.29860918  0.22243586  0.70948025    -0.26800
N1322       N  0.29315754  0.23114036  0.70244356    -0.34600
C1323       C  0.28535193  0.23884786  0.70891439     0.01600
C1324       C  0.28587162  0.23478138  0.72058765     0.07600
C1325       C  0.29433911  0.22432096  0.72061484    -0.05500
H1326       H  0.27994045  0.24699693  0.70540234     0.08300
H1327       H  0.29746226  0.21871075  0.72820028     0.09500
Cu1328     Cu  0.29745805  0.23295978  0.68456739     0.44200
Cu1329     Cu  0.31220803  0.20897945  0.70363453     0.42000
Cu1330     Cu  0.32479383  0.21487794  0.67384093     0.43900
N1331       N  0.30565651  0.23588297  0.66801554    -0.34200
N1332       N  0.31625297  0.22987137  0.66439150    -0.28400
C1333       C  0.32012436  0.23514241  0.65406739    -0.04500
C1334       C  0.31142404  0.24481016  0.65100522     0.07700
C1335       C  0.30234475  0.24496552  0.65999603     0.01500
H1336       H  0.32870070  0.23224745  0.64923755     0.09100
H1337       H  0.29435351  0.25168649  0.66098740     0.08200
N1338       N  0.32988139  0.19912663  0.68430177    -0.35600
N1339       N  0.32533879  0.19689543  0.69506789    -0.27800
C1340       C  0.33028184  0.18559616  0.69908278    -0.03000
C1341       C  0.33826121  0.18049289  0.69040280     0.05600
C1342       C  0.33777943  0.18932354  0.68117588     0.03700
H1343       H  0.32809629  0.18137455  0.70762922     0.08800
H1344       H  0.34269354  0.18864904  0.67273747     0.07600
N1345       N  0.34456627  0.85557607  0.45428129    -0.26800
N1346       N  0.34978220  0.84905598  0.44537924    -0.34600
C1347       C  0.36124074  0.85442980  0.44259563     0.01600
C1348       C  0.36343525  0.86484297  0.45010175     0.07600
C1349       C  0.35266343  0.86527897  0.45743337    -0.05500
H1350       H  0.36743560  0.85105379  0.43550821     0.08300
H1351       H  0.35074414  0.87225529  0.46439562     0.09500
Cu1352     Cu  0.34086923  0.83360361  0.43681515     0.44200
Cu1353     Cu  0.32637733  0.85102761  0.46118884     0.42000
Cu1354     Cu  0.30730333  0.82789777  0.44373163     0.43900
N1355       N  0.32953164  0.82016065  0.42787873    -0.34200
N1356       N  0.31707474  0.81845626  0.43004365    -0.28400
C1357       C  0.31234929  0.80968698  0.42231114    -0.04500
C1358       C  0.32234135  0.80561470  0.41500794     0.07700
C1359       C  0.33309757  0.81243301  0.41881603     0.01500
H1360       H  0.30239405  0.80645549  0.42209010     0.09100
H1361       H  0.34274045  0.81205466  0.41510096     0.08200
N1362       N  0.30073236  0.83681993  0.45919371    -0.35600
N1363       N  0.30786421  0.84467045  0.46581221    -0.27800
C1364       C  0.30119915  0.84769995  0.47569392    -0.03000
C1365       C  0.28924927  0.84165637  0.47517673     0.05600
C1366       C  0.28925936  0.83489587  0.46458352     0.03700
H1367       H  0.30477812  0.85388238  0.48272103     0.08800
H1368       H  0.28167119  0.82864722  0.46123965     0.07600
N1369       N  0.16618181  0.85151777  0.55341633    -0.26800
N1370       N  0.16199754  0.84567010  0.56312541    -0.34600
C1371       C  0.15060590  0.85088305  0.56634808     0.01600
C1372       C  0.14741509  0.86055665  0.55835411     0.07600
C1373       C  0.15749006  0.86066914  0.55022121    -0.05500
H1374       H  0.14534183  0.84817508  0.57425260     0.08300
H1375       H  0.15868688  0.86726185  0.54282753     0.09500
Cu1376     Cu  0.17247283  0.83199231  0.57260362     0.44200
Cu1377     Cu  0.18419049  0.84749448  0.54584737     0.42000
Cu1378     Cu  0.20601484  0.82898640  0.56509180     0.43900
N1379       N  0.18517330  0.82017760  0.58188233    -0.34200
N1380       N  0.19766640  0.81947413  0.57946851    -0.28400
C1381       C  0.20329163  0.81117000  0.58713432    -0.04500
C1382       C  0.19383616  0.80633713  0.59463977     0.07700
C1383       C  0.18247419  0.81225679  0.59104506     0.01500
H1384       H  0.21342921  0.80855476  0.58701806     0.09100
H1385       H  0.17293639  0.81093596  0.59480784     0.08200
N1386       N  0.21128965  0.83662679  0.54870241    -0.35600
N1387       N  0.20322297  0.84265414  0.54143070    -0.27800
C1388       C  0.20943650  0.84519102  0.53119028    -0.03000
C1389       C  0.22203891  0.84073392  0.53214278     0.05600
C1390       C  0.22288006  0.83541728  0.54336550     0.03700
H1391       H  0.20513044  0.85003417  0.52365204     0.08800
H1392       H  0.23118620  0.83062578  0.54723613     0.07600
N1393       N  0.84642815  0.14570455  0.45138777    -0.26800
N1394       N  0.85070228  0.15135713  0.44161331    -0.34600
C1395       C  0.86189993  0.14570913  0.43834922     0.01600
C1396       C  0.86488137  0.13603543  0.44644977     0.07600
C1397       C  0.85486271  0.13633143  0.45461949    -0.05500
H1398       H  0.86732912  0.14830315  0.43050359     0.08300
H1399       H  0.85357633  0.12995187  0.46215236     0.09500
Cu1400     Cu  0.84073087  0.16592312  0.43261093     0.44200
Cu1401     Cu  0.82867135  0.15032368  0.45914992     0.42000
Cu1402     Cu  0.80717367  0.16956631  0.44027343     0.43900
N1403       N  0.82833717  0.17882553  0.42405222    -0.34200
N1404       N  0.81584202  0.17966839  0.42644107    -0.28400
C1405       C  0.81040541  0.18845765  0.41911294    -0.04500
C1406       C  0.81998842  0.19350195  0.41187419     0.07700
C1407       C  0.83122710  0.18719926  0.41527121     0.01500
H1408       H  0.80029820  0.19119520  0.41924683     0.09100
H1409       H  0.84078097  0.18846242  0.41152791     0.08200
N1410       N  0.80161007  0.16123179  0.45624898    -0.35600
N1411       N  0.80957694  0.15499707  0.46346469    -0.27800
C1412       C  0.80320219  0.15212865  0.47354264    -0.03000
C1413       C  0.79060384  0.15658133  0.47251656     0.05600
C1414       C  0.78992801  0.16224730  0.46143937     0.03700
H1415       H  0.80742245  0.14715740  0.48105340     0.08800
H1416       H  0.78171716  0.16726198  0.45763258     0.07600
N1417       N  0.67132842  0.14385263  0.55513980    -0.26800
N1418       N  0.66716111  0.14945686  0.56497644    -0.34600
C1419       C  0.65653507  0.14318084  0.56880275     0.01600
C1420       C  0.65381599  0.13314611  0.56100567     0.07600
C1421       C  0.66339176  0.13387067  0.55243274    -0.05500
H1422       H  0.65122379  0.14572851  0.57672888     0.08300
H1423       H  0.66463590  0.12750403  0.54488606     0.09500
Cu1424     Cu  0.67621416  0.16519430  0.57303576     0.44200
Cu1425     Cu  0.68808981  0.14967039  0.54630438     0.42000
Cu1426     Cu  0.70855479  0.17203528  0.56269235     0.43900
N1427       N  0.68762380  0.18008119  0.57980385    -0.34200
N1428       N  0.69968744  0.18215413  0.57638862    -0.28400
C1429       C  0.70457043  0.19219326  0.58259196    -0.04500
C1430       C  0.69506859  0.19676348  0.59015639     0.07700
C1431       C  0.68444305  0.18888467  0.58815080     0.01500
H1432       H  0.71423184  0.19605513  0.58148290     0.09100
H1433       H  0.67514892  0.18938259  0.59253960     0.08200
N1434       N  0.71396013  0.16333080  0.54684816    -0.35600
N1435       N  0.70622689  0.15584965  0.54046365    -0.27800
C1436       C  0.71222416  0.15284622  0.53021704    -0.03000
C1437       C  0.72435476  0.15855888  0.53027234     0.05600
C1438       C  0.72514507  0.16506312  0.54096065     0.03700
H1439       H  0.70813682  0.14679674  0.52332912     0.08800
H1440       H  0.73311514  0.17095786  0.54408463     0.07600
N1441       N  0.02567871  0.93852225  0.59139362    -0.26800
N1442       N  0.01679781  0.94533936  0.58571007    -0.34600
C1443       C  0.00634916  0.94671456  0.59269705     0.01600
C1444       C  0.00883654  0.94061646  0.60337418     0.07600
C1445       C  0.02119390  0.93554128  0.60226551    -0.05500
H1446       H  0.99768260  0.95197700  0.59025472     0.08300
H1447       H  0.02645835  0.92994191  0.60879280     0.09500
Cu1448     Cu  0.01966648  0.95294441  0.56894206     0.44200
Cu1449     Cu  0.04316567  0.93338355  0.58359238     0.42000
Cu1450     Cu  0.04994425  0.94661810  0.55383767     0.43900
N1451       N  0.02431429  0.96060289  0.55253408    -0.34200
N1452       N  0.03536887  0.95855635  0.54693021    -0.28400
C1453       C  0.03512410  0.96512046  0.53657409    -0.04500
C1454       C  0.02332421  0.97152102  0.53567223     0.07700
C1455       C  0.01677317  0.96841567  0.54595468     0.01500
H1456       H  0.04291369  0.96517496  0.53017004     0.09100
H1457       H  0.00722547  0.97164788  0.54855410     0.08200
N1458       N  0.06184770  0.93341255  0.56281704    -0.35600
N1459       N  0.05927636  0.92860659  0.57344525    -0.27800
C1460       C  0.06842360  0.91983064  0.57631493    -0.03000
C1461       C  0.07722093  0.91906312  0.56710452     0.05600
C1462       C  0.07277187  0.92783512  0.55871451     0.03700
H1463       H  0.06850131  0.91424511  0.58443813     0.08800
H1464       H  0.07693292  0.92975116  0.55009790     0.07600
N1465       N  0.97970910  0.04133186  0.46509721    -0.26800
N1466       N  0.99118707  0.04039214  0.45997773    -0.34600
C1467       C  0.99886781  0.03276318  0.46661820     0.01600
C1468       C  0.99194679  0.02864274  0.47640872     0.07600
C1469       C  0.97981765  0.03426745  0.47516693    -0.05500
H1470       H  0.00870845  0.03021819  0.46432278     0.08300
H1471       H  0.97164234  0.03322227  0.48107720     0.09500
Cu1472     Cu  0.99588985  0.04863602  0.44375702     0.44200
Cu1473     Cu  0.96446604  0.05208484  0.45790415     0.42000
Cu1474     Cu  0.96967971  0.06267613  0.42743099     0.43900
N1475       N  0.99765205  0.05488286  0.42635901    -0.34200
N1476       N  0.98775373  0.05916167  0.42005844    -0.28400
C1477       C  0.99176837  0.06159964  0.40892918    -0.04500
C1478       C  0.00486743  0.05894964  0.40829764     0.07700
C1479       C  0.00829915  0.05476725  0.41950300     0.01500
H1480       H  0.98571116  0.06545534  0.40195076     0.09100
H1481       H  0.01778667  0.05167882  0.42241220     0.08200
N1482       N  0.95361319  0.06774837  0.43749921    -0.35600
N1483       N  0.95162937  0.06395465  0.44855136    -0.27800
C1484       C  0.94069866  0.06959072  0.45258961    -0.03000
C1485       C  0.93563135  0.07735465  0.44367827     0.05600
C1486       C  0.94408043  0.07592189  0.43425908     0.03700
H1487       H  0.93694954  0.06843271  0.46147353     0.08800
H1488       H  0.94353930  0.08069540  0.42573541     0.07600
N1489       N  0.48762542  0.93782730  0.42038449    -0.26800
N1490       N  0.49737625  0.94287951  0.42636649    -0.34600
C1491       C  0.50803420  0.94276916  0.41954441     0.01600
C1492       C  0.50477399  0.93760685  0.40865155     0.07600
C1493       C  0.49174287  0.93461118  0.40944466    -0.05500
H1494       H  0.51734786  0.94659406  0.42217863     0.08300
H1495       H  0.48577123  0.93022884  0.40266837     0.09500
Cu1496     Cu  0.49512674  0.95094065  0.44300668     0.44200
Cu1497     Cu  0.46963782  0.93497183  0.42814803     0.42000
Cu1498     Cu  0.46369621  0.94897626  0.45759361     0.43900
N1499       N  0.49025545  0.96131754  0.45804802    -0.34200
N1500       N  0.47884163  0.96095895  0.46334885    -0.28400
C1501       C  0.47906370  0.96924484  0.47262256    -0.04500
C1502       C  0.49118834  0.97503591  0.47311182     0.07700
C1503       C  0.49797443  0.96976906  0.46372777     0.01500
H1504       H  0.47101712  0.97088747  0.47856829     0.09100
H1505       H  0.50781605  0.97194040  0.46113823     0.08200
N1506       N  0.45163276  0.93522555  0.44947584    -0.35600
N1507       N  0.45394116  0.93031727  0.43884027    -0.27800
C1508       C  0.44496600  0.92126559  0.43636141    -0.03000
C1509       C  0.43650838  0.92037315  0.44581726     0.05600
C1510       C  0.44100142  0.92939832  0.45398652     0.03700
H1511       H  0.44475709  0.91560965  0.42828439     0.08800
H1512       H  0.43701477  0.93139328  0.46265866     0.07600
N1513       N  0.53474069  0.04696328  0.54134194    -0.26800
N1514       N  0.52312494  0.04715616  0.54625641    -0.34600
C1515       C  0.51491463  0.04031954  0.53945132     0.01600
C1516       C  0.52165098  0.03554574  0.52978699     0.07600
C1517       C  0.53419874  0.03999644  0.53124119    -0.05500
H1518       H  0.50489188  0.03851929  0.54166366     0.08300
H1519       H  0.54243724  0.03793293  0.52563322     0.09500
Cu1520     Cu  0.51910168  0.05512440  0.56275573     0.44200
Cu1521     Cu  0.55093113  0.05528628  0.54920313     0.42000
Cu1522     Cu  0.54666357  0.06432979  0.58018690     0.43900
N1523       N  0.51788881  0.06005573  0.58055181    -0.34200
N1524       N  0.52811853  0.06263326  0.58716412    -0.28400
C1525       C  0.52427072  0.06434906  0.59845778    -0.04500
C1526       C  0.51096364  0.06295167  0.59890886     0.07700
C1527       C  0.50724016  0.06028121  0.58740236     0.01500
H1528       H  0.53065810  0.06664174  0.60574744     0.09100
H1529       H  0.49754885  0.05828335  0.58428493     0.08200
N1530       N  0.56346137  0.06778567  0.57051408    -0.35600
N1531       N  0.56504346  0.06451492  0.55927334    -0.27800
C1532       C  0.57649807  0.06914827  0.55545547    -0.03000
C1533       C  0.58234695  0.07575920  0.56469575     0.05600
C1534       C  0.57382214  0.07464916  0.57410287     0.03700
H1535       H  0.57997878  0.06834176  0.54644857     0.08800
H1536       H  0.57479048  0.07897925  0.58278719     0.07600
C1537       C  0.49678867  0.99793894  0.49649245     0.20800
C1538       C  0.49381456  0.00541604  0.50652665    -0.39000
C1539       C  0.50383315  0.01331515  0.51081819     0.19800
C1540       C  0.51592585  0.01373130  0.50556318     0.22500
C1541       C  0.51891097  0.00624964  0.49550828    -0.39500
C1542       C  0.50886020  0.99836433  0.49119152     0.21300
N1543       N  0.48894542  0.98961897  0.49075794    -0.32800
C1544       C  0.49605394  0.98469786  0.48171415    -0.10400
C1545       C  0.50853252  0.98993462  0.48170193    -0.29200
N1546       N  0.52381124  0.02184997  0.51150749    -0.45800
C1547       C  0.51666130  0.02662240  0.52061286    -0.05100
C1548       C  0.50414751  0.02153946  0.52043167    -0.22400
H1549       H  0.48440001  0.00507412  0.51071587     0.19400
H1550       H  0.52836336  0.00650443  0.49138294     0.18200
H1551       H  0.51634118  0.98783722  0.47560458     0.14500
H1552       H  0.49636796  0.02342010  0.52661601     0.14300
H1553       H  0.47935680  0.98742553  0.49288873     0.32500
H1554       H  0.53348153  0.02388042  0.50956524     0.35200
C1555       C  0.00920468  0.00723403  0.49586359     0.20800
C1556       C  0.01984178  0.00001522  0.49997596    -0.39000
C1557       C  0.01767043  0.99254063  0.51018959     0.19800
C1558       C  0.00580843  0.99232495  0.51587157     0.22500
C1559       C  0.99515593  0.99952123  0.51174363    -0.39500
C1560       C  0.99732663  0.00698561  0.50151704     0.21300
N1561       N  0.00878992  0.01503418  0.48632270    -0.32800
C1562       C  0.99655900  0.01980160  0.48583943    -0.10400
C1563       C  0.98911310  0.01501557  0.49520562    -0.29200
N1564       N  0.00630702  0.98469911  0.52552684    -0.45800
C1565       C  0.01857083  0.98000251  0.52603270    -0.05100
C1566       C  0.02594060  0.98463058  0.51656139    -0.22400
H1567       H  0.02913528  0.00023141  0.49555896     0.19400
H1568       H  0.98588220  0.99936263  0.51619946     0.18200
H1569       H  0.97904541  0.01704121  0.49709116     0.14500
H1570       H  0.03603393  0.98269146  0.51471869     0.14300
H1571       H  0.01638600  0.01692234  0.48046769     0.32500
H1572       H  0.99876145  0.98291454  0.53146261     0.35200
C1573       C  0.60842921  0.09817156  0.56895078     0.20800
C1574       C  0.61523625  0.10822502  0.57458041    -0.39000
C1575       C  0.62598731  0.11307086  0.56842874     0.19800
C1576       C  0.62974491  0.10824891  0.55751264     0.22500
C1577       C  0.62288020  0.09820747  0.55183415    -0.39500
C1578       C  0.61205248  0.09339092  0.55797818     0.21300
N1579       N  0.59766284  0.09223527  0.57284227    -0.32800
C1580       C  0.59426578  0.08367231  0.56425862    -0.10400
C1581       C  0.60304143  0.08407836  0.55484135    -0.29200
N1582       N  0.64021859  0.11466709  0.55347937    -0.45800
C1583       C  0.64307944  0.12368242  0.56187409    -0.05100
C1584       C  0.63440751  0.12294923  0.57132568    -0.22400
H1585       H  0.61228628  0.11209616  0.58307935     0.19400
H1586       H  0.62566179  0.09453662  0.54321538     0.18200
H1587       H  0.60272041  0.07852885  0.54670074     0.14500
H1588       H  0.63421747  0.12889618  0.57923344     0.14300
H1589       H  0.59273241  0.09419104  0.58072056     0.32500
H1590       H  0.64500221  0.11311783  0.54545270     0.35200
C1591       C  0.91054481  0.10101180  0.43947697     0.20800
C1592       C  0.90394288  0.11114488  0.43372125    -0.39000
C1593       C  0.89324590  0.11628017  0.43978692     0.19800
C1594       C  0.88935859  0.11164056  0.45072953     0.22500
C1595       C  0.89600892  0.10152261  0.45652138    -0.39500
C1596       C  0.90677140  0.09641957  0.45047099     0.21300
N1597       N  0.92110919  0.09466813  0.43561882    -0.32800
C1598       C  0.92420432  0.08600873  0.44423600    -0.10400
C1599       C  0.91545192  0.08679399  0.45364951    -0.29200
N1600       N  0.87881163  0.11809751  0.45455520    -0.45800
C1601       C  0.87598903  0.12694118  0.44599769    -0.05100
C1602       C  0.88482002  0.12610313  0.43666491    -0.22400
H1603       H  0.90694407  0.11479450  0.42515650     0.19400
H1604       H  0.89305215  0.09792460  0.46511608     0.18200
H1605       H  0.91550631  0.08119215  0.46176693     0.14500
H1606       H  0.88498786  0.13181111  0.42861053     0.14300
H1607       H  0.92602958  0.09631888  0.42767907     0.32500
H1608       H  0.87384298  0.11655901  0.46248898     0.35200
C1609       C  0.76142774  0.15640776  0.48963231     0.20800
C1610       C  0.74801937  0.15623720  0.49175400    -0.39000
C1611       C  0.74426349  0.15687144  0.50370648     0.19800
C1612       C  0.75319395  0.15790429  0.51278654     0.22500
C1613       C  0.76656966  0.15786274  0.51067595    -0.39500
C1614       C  0.77032190  0.15693912  0.49877442     0.21300
N1615       N  0.76750525  0.15614110  0.47909319    -0.32800
C1616       C  0.78034401  0.15627309  0.48158193    -0.10400
C1617       C  0.78247801  0.15668121  0.49375967    -0.29200
N1618       N  0.74721637  0.15874539  0.52332201    -0.45800
C1619       C  0.73438492  0.15798009  0.52100289    -0.05100
C1620       C  0.73213455  0.15675506  0.50886261    -0.22400
H1621       H  0.74103933  0.15565579  0.48463588     0.19400
H1622       H  0.77354930  0.15850575  0.51778883     0.18200
H1623       H  0.79167857  0.15712852  0.49830550     0.14500
H1624       H  0.72288777  0.15607948  0.50441932     0.14300
H1625       H  0.76320432  0.15587229  0.47073154     0.32500
H1626       H  0.75160522  0.15960149  0.53161382     0.35200
C1627       C  0.11953490  0.87934984  0.56632515     0.20800
C1628       C  0.10904061  0.88319261  0.57341751    -0.39000
C1629       C  0.10210636  0.89408437  0.56941286     0.19800
C1630       C  0.10536676  0.90062469  0.55911910     0.22500
C1631       C  0.11591554  0.89681808  0.55206009    -0.39500
C1632       C  0.12286690  0.88592540  0.55607135     0.21300
N1633       N  0.12766985  0.86937426  0.56826245    -0.32800
C1634       C  0.13632534  0.86959846  0.55922388    -0.10400
C1635       C  0.13361699  0.87978252  0.55140646    -0.29200
N1636       N  0.09705916  0.91045256  0.55708375    -0.45800
C1637       C  0.08843446  0.91018793  0.56613970    -0.05100
C1638       C  0.09132046  0.90013956  0.57404985    -0.22400
H1639       H  0.10643926  0.87804776  0.58144072     0.19400
H1640       H  0.11848403  0.90192787  0.54401209     0.18200
H1641       H  0.13889297  0.88245131  0.54349009     0.14500
H1642       H  0.08607838  0.89743647  0.58197695     0.14300
H1643       H  0.12743028  0.86294301  0.57542226     0.32500
H1644       H  0.09717807  0.91684554  0.54988990     0.35200
C1645       C  0.40783498  0.90225415  0.45308633     0.20800
C1646       C  0.39662884  0.89884462  0.45947081    -0.39000
C1647       C  0.38907668  0.88881543  0.45453805     0.19800
C1648       C  0.39250428  0.88265488  0.44409683     0.22500
C1649       C  0.40363890  0.88608045  0.43771724    -0.39500
C1650       C  0.41112160  0.89610537  0.44260453     0.21300
N1651       N  0.41653344  0.91158629  0.45573185    -0.32800
C1652       C  0.42534776  0.91140947  0.44680778    -0.10400
C1653       C  0.42228292  0.90184071  0.43849325    -0.29200
N1654       N  0.38384440  0.87343022  0.44126160    -0.45800
C1655       C  0.37474295  0.87366802  0.44991152    -0.05100
C1656       C  0.37765089  0.88318330  0.45835882    -0.22400
H1657       H  0.39395604  0.90367920  0.46763026     0.19400
H1658       H  0.40625753  0.88131795  0.42950582     0.18200
H1659       H  0.42744307  0.89946288  0.43043701     0.14500
H1660       H  0.37220582  0.88559314  0.46624896     0.14300
H1661       H  0.41636113  0.91781366  0.46304199     0.32500
H1662       H  0.38412230  0.86737407  0.43383662     0.35200
C1663       C  0.25131403  0.84175872  0.51517705     0.20800
C1664       C  0.26472808  0.84232560  0.51322442    -0.39000
C1665       C  0.26866582  0.84229373  0.50131986     0.19800
C1666       C  0.25991488  0.84148533  0.49207795     0.22500
C1667       C  0.24648942  0.84116573  0.49402661    -0.39500
C1668       C  0.24254172  0.84144534  0.50592821     0.21300
N1669       N  0.24513593  0.84147148  0.52565949    -0.32800
C1670       C  0.23232843  0.84121234  0.52308393    -0.10400
C1671       C  0.23031841  0.84125172  0.51086392    -0.29200
N1672       N  0.26612587  0.84108839  0.48161117    -0.45800
C1673       C  0.27890835  0.84190237  0.48418723    -0.05100
C1674       C  0.28087976  0.84274274  0.49638628    -0.22400
H1675       H  0.27159505  0.84271850  0.52044429     0.19400
H1676       H  0.23962566  0.84068138  0.48680928     0.18200
H1677       H  0.22116459  0.84091835  0.50623176     0.14500
H1678       H  0.29002432  0.84331082  0.50101543     0.14300
H1679       H  0.24936375  0.84156822  0.53405615     0.32500
H1680       H  0.26193524  0.84041365  0.47322075     0.35200
C1681       C  0.27272140  0.24386324  0.74874826     0.20800
C1682       C  0.27000103  0.24259104  0.76086790    -0.39000
C1683       C  0.26240959  0.25251344  0.76583888     0.19800
C1684       C  0.25789680  0.26294032  0.75926045     0.22500
C1685       C  0.26063685  0.26422747  0.74712696    -0.39500
C1686       C  0.26818985  0.25425944  0.74213811     0.21300
N1687       N  0.27955534  0.23562016  0.74193538    -0.32800
C1688       C  0.27935883  0.24076060  0.73087859    -0.10400
C1689       C  0.27234618  0.25239223  0.73065318    -0.29200
N1690       N  0.25045312  0.27076547  0.76596773    -0.45800
C1691       C  0.25016347  0.26523006  0.77687910    -0.05100
C1692       C  0.25759083  0.25387839  0.77714565    -0.22400
H1693       H  0.27339360  0.23437882  0.76601394     0.19400
H1694       H  0.25698763  0.27227895  0.74191790     0.18200
H1695       H  0.27054386  0.25865070  0.72312175     0.14500
H1696       H  0.25896081  0.24727825  0.78450964     0.14300
H1697       H  0.28401395  0.22699264  0.74465050     0.32500
H1698       H  0.24559687  0.27914736  0.76319109     0.35200
C1699       C  0.47982595  0.06353912  0.64352004     0.20800
C1700       C  0.49263072  0.06138365  0.63979399    -0.39000
C1701       C  0.49495553  0.06306923  0.62762126     0.19800
C1702       C  0.48522090  0.06646853  0.61979137     0.22500
C1703       C  0.47251975  0.06885871  0.62354231    -0.39500
C1704       C  0.47024346  0.06733061  0.63568452     0.21300
N1705       N  0.47503961  0.06254007  0.65457319    -0.32800
C1706       C  0.46240107  0.06596158  0.65372454    -0.10400
C1707       C  0.45907484  0.06902571  0.64210527    -0.29200
N1708       N  0.48972030  0.06690741  0.60864868    -0.45800
C1709       C  0.50245905  0.06393183  0.60934662    -0.05100
C1710       C  0.50613414  0.06156757  0.62105075    -0.22400
H1711       H  0.50019130  0.05853605  0.64589287     0.19400
H1712       H  0.46494110  0.07163821  0.61743564     0.18200
H1713       H  0.44972756  0.07208358  0.63880461     0.14500
H1714       H  0.51559889  0.05877006  0.62425611     0.14300
H1715       H  0.48009917  0.06001288  0.66223868     0.32500
H1716       H  0.48443560  0.06909510  0.60102197     0.35200
C1717       C  0.37174823  0.13340706  0.68746293     0.20800
C1718       C  0.36781066  0.14397044  0.68050043    -0.39000
C1719       C  0.35887595  0.15239991  0.68578572     0.19800
C1720       C  0.35419575  0.15047400  0.69714008     0.22500
C1721       C  0.35809656  0.13983955  0.70410222    -0.39500
C1722       C  0.36705492  0.13137423  0.69879998     0.21300
N1723       N  0.38043226  0.12425840  0.68455547    -0.32800
C1724       C  0.38129137  0.11628957  0.69408208    -0.10400
C1725       C  0.37305005  0.12036302  0.70314944    -0.29200
N1726       N  0.34609398  0.16014110  0.70022097    -0.45800
C1727       C  0.34568024  0.16826480  0.69075569    -0.05100
C1728       C  0.35348213  0.16371652  0.68157122    -0.22400
H1729       H  0.37157572  0.14560961  0.67167770     0.19400
H1730       H  0.35454922  0.13836076  0.71302177     0.18200
H1731       H  0.37180586  0.11602191  0.71180836     0.14500
H1732       H  0.35518547  0.16819657  0.67303767     0.14300
H1733       H  0.38550979  0.12356049  0.67658084     0.32500
H1734       H  0.34132447  0.16123391  0.70831636     0.35200
C1735       C  0.41558930  0.99162264  0.75928293     0.20800
C1736       C  0.40769302  0.00082060  0.75356115    -0.39000
C1737       C  0.41422037  0.01015803  0.74670961     0.19800
C1738       C  0.42755760  0.01017156  0.74556291     0.22500
C1739       C  0.43544062  0.00114188  0.75142811    -0.39500
C1740       C  0.42894295  0.99193908  0.75837342     0.21300
N1741       N  0.41180179  0.98163368  0.76615998    -0.32800
C1742       C  0.42284531  0.97572169  0.76977518    -0.10400
C1743       C  0.43372807  0.98189917  0.76514586    -0.29200
N1744       N  0.43140982  0.01959666  0.73814762    -0.45800
C1745       C  0.42049393  0.02575489  0.73460843    -0.05100
C1746       C  0.40954582  0.02023245  0.73982371    -0.22400
H1747       H  0.39725525  0.00064405  0.75430002     0.19400
H1748       H  0.44587011  0.00121547  0.75056796     0.18200
H1749       H  0.44377324  0.97930414  0.76646668     0.14500
H1750       H  0.39953808  0.02293815  0.73845487     0.14300
H1751       H  0.40232283  0.97911299  0.76840321     0.32500
H1752       H  0.44090738  0.02166897  0.73560634     0.35200
C1753       C  0.16085312  0.34611021  0.81685530     0.20800
C1754       C  0.15148184  0.35347887  0.82281295    -0.39000
C1755       C  0.14753591  0.36493578  0.81714027     0.19800
C1756       C  0.15247735  0.36882193  0.80631357     0.22500
C1757       C  0.16188513  0.36139625  0.80030252    -0.39500
C1758       C  0.16589683  0.34988873  0.80603039     0.21300
N1759       N  0.16635579  0.33501440  0.82060985    -0.32800
C1760       C  0.17506865  0.33162139  0.81218816    -0.10400
C1761       C  0.17503972  0.34065042  0.80289964    -0.29200
N1762       N  0.14710088  0.38019923  0.80290684    -0.45800
C1763       C  0.13868856  0.38350560  0.81165953    -0.05100
C1764       C  0.13874160  0.37419640  0.82065954    -0.22400
H1765       H  0.14761241  0.35055162  0.83131590     0.19400
H1766       H  0.16586764  0.36440755  0.79186941     0.18200
H1767       H  0.18101723  0.34057810  0.79502828     0.14500
H1768       H  0.13309299  0.37416473  0.82872988     0.14300
H1769       H  0.16440378  0.33016958  0.82854394     0.32500
H1770       H  0.14900617  0.38535207  0.79512487     0.35200
C1771       C  0.08988973  0.49172544  0.76363946     0.20800
C1772       C  0.08179885  0.50004669  0.75714801    -0.39000
C1773       C  0.08799838  0.51022008  0.75112195     0.19800
C1774       C  0.10123484  0.51214985  0.75168719     0.22500
C1775       C  0.10936711  0.50371155  0.75809478    -0.39500
C1776       C  0.10317725  0.49334873  0.76395857     0.21300
N1777       N  0.08631718  0.48131160  0.77004679    -0.32800
C1778       C  0.09738944  0.47608779  0.77436805    -0.10400
C1779       C  0.10814924  0.48328112  0.77071712    -0.29200
N1780       N  0.10474312  0.52235293  0.74490671    -0.45800
C1781       C  0.09368618  0.52672821  0.73980462    -0.05100
C1782       C  0.08304968  0.51943473  0.74351521    -0.22400
H1783       H  0.07144425  0.49857767  0.75666985     0.19400
H1784       H  0.11975435  0.50499294  0.75833602     0.18200
H1785       H  0.11818996  0.48153548  0.77290972     0.14500
H1786       H  0.07307704  0.52051877  0.74077376     0.14300
H1787       H  0.07690180  0.47790307  0.77134032     0.32500
H1788       H  0.11412818  0.52574434  0.74341152     0.35200
C1789       C  0.20487725  0.76872811  0.63379662     0.20800
C1790       C  0.21144339  0.77758160  0.62643854    -0.39000
C1791       C  0.20377075  0.78413567  0.61807754     0.19800
C1792       C  0.19056690  0.78210768  0.61722483     0.22500
C1793       C  0.18404629  0.77315859  0.62447704    -0.39500
C1794       C  0.19172135  0.76652931  0.63274590     0.21300
N1795       N  0.20988709  0.76143375  0.64256214    -0.32800
C1796       C  0.19985718  0.75446155  0.64704272    -0.10400
C1797       C  0.18838330  0.75735609  0.64111497    -0.29200
N1798       N  0.18539111  0.78976498  0.60882687    -0.45800
C1799       C  0.19536737  0.79664972  0.60418723    -0.05100
C1800       C  0.20701365  0.79336581  0.60969030    -0.22400
H1801       H  0.22173993  0.77928889  0.62720784     0.19400
H1802       H  0.17373077  0.77153676  0.62378132     0.18200
H1803       H  0.17884539  0.75344078  0.64282082     0.14500
H1804       H  0.21651591  0.79733918  0.60792287     0.14300
H1805       H  0.21953181  0.76120116  0.64529731     0.32500
H1806       H  0.17566474  0.79021809  0.60636504     0.35200
C1807       C  0.13922561  0.63595839  0.70711150     0.20800
C1808       C  0.15002675  0.64222433  0.71211301    -0.39000
C1809       C  0.15361315  0.65411602  0.70685598     0.19800
C1810       C  0.14693188  0.65932663  0.69735735     0.22500
C1811       C  0.13609673  0.65312901  0.69243131    -0.39500
C1812       C  0.13252876  0.64126854  0.69766971     0.21300
N1813       N  0.13420991  0.62430717  0.71012100    -0.32800
C1814       C  0.12426056  0.62218124  0.70252108    -0.10400
C1815       C  0.12288758  0.63260817  0.69467948    -0.29200
N1816       N  0.15253076  0.67040857  0.69363315    -0.45800
C1817       C  0.16288475  0.67235293  0.70078540    -0.05100
C1818       C  0.16383962  0.66240625  0.70920417    -0.22400
H1819       H  0.15539267  0.63802811  0.71940182     0.19400
H1820       H  0.13097166  0.65712508  0.68490703     0.18200
H1821       H  0.11598309  0.63358770  0.68753858     0.14500
H1822       H  0.17119257  0.66122084  0.71593260     0.14300
H1823       H  0.13750565  0.61809746  0.71679437     0.32500
H1824       H  0.14955533  0.67619539  0.68653349     0.35200
C1825       C  0.36373035  0.84515688  0.81360161     0.20800
C1826       C  0.37242615  0.85316300  0.81967812    -0.39000
C1827       C  0.37624830  0.86446854  0.81372808     0.19800
C1828       C  0.37181576  0.86763864  0.80253525     0.22500
C1829       C  0.36309152  0.85956250  0.79639576    -0.39500
C1830       C  0.35920883  0.84818910  0.80240086     0.21300
N1831       N  0.35847117  0.83404201  0.81755545    -0.32800
C1832       C  0.35046227  0.82986735  0.80887028    -0.10400
C1833       C  0.35067592  0.83842177  0.79922329    -0.29200
N1834       N  0.37687379  0.87909003  0.79896365    -0.45800
C1835       C  0.38454498  0.88314372  0.80800118    -0.05100
C1836       C  0.38437572  0.87424852  0.81731930    -0.22400
H1837       H  0.37587734  0.85081504  0.82847000     0.19400
H1838       H  0.35950113  0.86200664  0.78767395     0.18200
H1839       H  0.34520807  0.83769889  0.79108418     0.14500
H1840       H  0.38946829  0.87484777  0.82566631     0.14300
H1841       H  0.36015049  0.82966863  0.82576067     0.32500
H1842       H  0.37519641  0.88383511  0.79092989     0.35200
C1843       C  0.26944651  0.75698184  0.75706298     0.20800
C1844       C  0.26657258  0.75730840  0.74491051    -0.39000
C1845       C  0.25702166  0.74853458  0.74110639     0.19800
C1846       C  0.25080993  0.74012918  0.74882623     0.22500
C1847       C  0.25366593  0.73982323  0.76095520    -0.39500
C1848       C  0.26322737  0.74854288  0.76474429     0.21300
N1849       N  0.27822444  0.76420681  0.76288895    -0.32800
C1850       C  0.27759439  0.76029644  0.77434948    -0.10400
C1851       C  0.26834655  0.75054076  0.77583589    -0.29200
N1852       N  0.24223444  0.73266430  0.74303578    -0.45800
C1853       C  0.24297232  0.73629614  0.73152220    -0.05100
C1854       C  0.25207818  0.74620800  0.72996895    -0.22400
H1855       H  0.27146015  0.76384309  0.73886096     0.19400
H1856       H  0.24886240  0.73320709  0.76698706     0.18200
H1857       H  0.26573144  0.74554310  0.78392780     0.14500
H1858       H  0.25476622  0.75102189  0.72180424     0.14300
H1859       H  0.28431431  0.77127993  0.75926757     0.32500
H1860       H  0.23627977  0.72551062  0.74671420     0.35200
C1861       C  0.20652279  0.21709651  0.89373159     0.20800
C1862       C  0.21554933  0.22317644  0.88624395    -0.39000
C1863       C  0.21042617  0.23204088  0.87801669     0.19800
C1864       C  0.19733700  0.23481627  0.87744720     0.22500
C1865       C  0.18829589  0.22864026  0.88485824    -0.39500
C1866       C  0.19339688  0.21961460  0.89295167     0.21300
N1867       N  0.20888834  0.20796259  0.90198690    -0.32800
C1868       C  0.19717406  0.20447073  0.90637552    -0.10400
C1869       C  0.18727203  0.21155588  0.90097181    -0.29200
N1870       N  0.19490899  0.24348773  0.86879816    -0.45800
C1871       C  0.20649558  0.24609176  0.86367562    -0.05100
C1872       C  0.21640967  0.23912157  0.86918011    -0.22400
H1873       H  0.22578075  0.22097857  0.88664220     0.19400
H1874       H  0.17802278  0.23055469  0.88422657     0.18200
H1875       H  0.17697825  0.21079848  0.90258125     0.14500
H1876       H  0.22659682  0.23916853  0.86696263     0.14300
H1877       H  0.21789303  0.20406990  0.90423725     0.32500
H1878       H  0.18587537  0.24713260  0.86631332     0.35200
C1879       C  0.24346832  0.15316948  0.00079888     0.20800
C1880       C  0.24627293  0.15338691  0.01293828    -0.39000
C1881       C  0.25943492  0.15316822  0.01587960     0.19800
C1882       C  0.26909404  0.15252928  0.00739496     0.22500
C1883       C  0.26629496  0.15255654  0.99522325    -0.39500
C1884       C  0.25310593  0.15300230  0.99227391     0.21300
N1885       N  0.23171933  0.15354018  0.99574767    -0.32800
C1886       C  0.23387440  0.15386097  0.98392186    -0.10400
C1887       C  0.24709018  0.15357384  0.98139176    -0.29200
N1888       N  0.28082919  0.15239816  0.01253308    -0.45800
C1889       C  0.27857282  0.15324362  0.02433869    -0.05100
C1890       C  0.26537021  0.15376836  0.02676446    -0.22400
H1891       H  0.23875732  0.15385053  0.01960450     0.19400
H1892       H  0.27381991  0.15239104  0.98855321     0.18200
H1893       H  0.25165919  0.15380115  0.97276702     0.14500
H1894       H  0.26075498  0.15455641  0.03534097     0.14300
H1895       H  0.22279608  0.15393293  0.00008217     0.32500
H1896       H  0.28980425  0.15217098  0.00828157     0.35200
C1897       C  0.09695106  0.11202889  0.94607182     0.20800
C1898       C  0.10428589  0.12168575  0.94045170    -0.39000
C1899       C  0.11592471  0.12498488  0.94600699     0.19800
C1900       C  0.12001223  0.11914122  0.95639293     0.22500
C1901       C  0.11260265  0.10948751  0.96208710    -0.39500
C1902       C  0.10089220  0.10617255  0.95650558     0.21300
N1903       N  0.08573034  0.10696712  0.94230650    -0.32800
C1904       C  0.08239584  0.09780119  0.95037629    -0.10400
C1905       C  0.09158596  0.09704747  0.95942543    -0.29200
N1906       N  0.13165895  0.12381520  0.95963861    -0.45800
C1907       C  0.13494681  0.13267261  0.95122079    -0.05100
C1908       C  0.12533353  0.13366771  0.94262023    -0.22400
H1909       H  0.10123386  0.12617945  0.93224484     0.19400
H1910       H  0.11578589  0.10480160  0.97016136     0.18200
H1911       H  0.09159096  0.09054451  0.96696808     0.14500
H1912       H  0.12529807  0.13977015  0.93480854     0.14300
H1913       H  0.08070633  0.10956670  0.93464255     0.32500
H1914       H  0.13707783  0.12103913  0.96701989     0.35200
C1915       C  0.99034372  0.00213380  0.01303564     0.20800
C1916       C  0.98770296  0.00775382  0.00196851    -0.39000
C1917       C  0.99695435  0.01663891  0.99779382     0.19800
C1918       C  0.00800854  0.01966274  0.00412927     0.22500
C1919       C  0.01063472  0.01406713  0.01520464    -0.39500
C1920       C  0.00135639  0.00522872  0.01940322     0.21300
N1921       N  0.98314925  0.99332777  0.01889493    -0.32800
C1922       C  0.98960037  0.99084554  0.02909721    -0.10400
C1923       C  0.00099304  0.99810672  0.02972869    -0.29200
N1924       N  0.01538639  0.02818864  0.99813166    -0.45800
C1925       C  0.00898955  0.03060492  0.98789136    -0.05100
C1926       C  0.99742739  0.02360679  0.98738429    -0.22400
H1927       H  0.97911772  0.00533687  0.99695147     0.19400
H1928       H  0.01928292  0.01638858  0.02016875     0.18200
H1929       H  0.00812775  0.99808560  0.03673343     0.14500
H1930       H  0.99040249  0.02346703  0.98028831     0.14300
H1931       H  0.97440183  0.98926951  0.01611512     0.32500
H1932       H  0.02428325  0.03200090  0.00079893     0.35200
C1933       C  0.89659259  0.87822780  0.05957178     0.20800
C1934       C  0.90835821  0.88054840  0.06536615    -0.39000
C1935       C  0.91475343  0.89205979  0.06217947     0.19800
C1936       C  0.90982853  0.90060714  0.05384265     0.22500
C1937       C  0.89799377  0.89832571  0.04810053    -0.39500
C1938       C  0.89158153  0.88679248  0.05129367     0.21300
N1939       N  0.88870036  0.86798294  0.06105649    -0.32800
C1940       C  0.87853661  0.87001606  0.05370708    -0.10400
C1941       C  0.87998681  0.88165887  0.04745025    -0.29200
N1942       N  0.91790337  0.91072141  0.05224264    -0.45800
C1943       C  0.92801380  0.90860140  0.05964275    -0.05100
C1944       C  0.92635892  0.89707750  0.06601661    -0.22400
H1945       H  0.91226728  0.87385639  0.07185073     0.19400
H1946       H  0.89410400  0.90499687  0.04159054     0.18200
H1947       H  0.87341811  0.88585214  0.04104059     0.14500
H1948       H  0.93283997  0.89284696  0.07248148     0.14300
H1949       H  0.89012426  0.86015608  0.06681667     0.32500
H1950       H  0.91661104  0.91855955  0.04646614     0.35200
C1951       C  0.75128889  0.84624554  0.99394301     0.20800
C1952       C  0.76468907  0.84714285  0.99565437    -0.39000
C1953       C  0.76881492  0.84716360  0.00747145     0.19800
C1954       C  0.76027033  0.84616578  0.01687820     0.22500
C1955       C  0.74682917  0.84556720  0.01517319    -0.39500
C1956       C  0.74268390  0.84573495  0.00333903     0.21300
N1957       N  0.74499552  0.84546467  0.98356914    -0.32800
C1958       C  0.73228021  0.84467282  0.98636727    -0.10400
C1959       C  0.73042352  0.84491840  0.99860285    -0.29200
N1960       N  0.76671514  0.84552180  0.02720038    -0.45800
C1961       C  0.77942392  0.84630819  0.02431874    -0.05100
C1962       C  0.78110973  0.84744974  0.01211617    -0.22400
H1963       H  0.77142511  0.84754267  0.98831980     0.19400
H1964       H  0.74011613  0.84478722  0.02250007     0.18200
H1965       H  0.72136564  0.84417979  0.00337019     0.14500
H1966       H  0.79013689  0.84792177  0.00727289     0.14300
H1967       H  0.74908456  0.84547041  0.97510658     0.32500
H1968       H  0.76273773  0.84452063  0.03565798     0.35200
C1969       C  0.40664757  0.09578640  0.05856883     0.20800
C1970       C  0.39601558  0.09975588  0.05170095    -0.39000
C1971       C  0.38768464  0.10883396  0.05706027     0.19800
C1972       C  0.38986914  0.11362759  0.06833971     0.22500
C1973       C  0.40042271  0.10961071  0.07520799    -0.39500
C1974       C  0.40868026  0.10050797  0.06989282     0.21300
N1975       N  0.41612827  0.08746727  0.05547322    -0.32800
C1976       C  0.42421862  0.08690847  0.06491896    -0.10400
C1977       C  0.41984248  0.09487597  0.07408677    -0.29200
N1978       N  0.38076880  0.12234117  0.07135562    -0.45800
C1979       C  0.37263906  0.12308256  0.06197938    -0.05100
C1980       C  0.37659862  0.11476216  0.05288413    -0.22400
H1981       H  0.39439321  0.09610958  0.04283372     0.19400
H1982       H  0.40213596  0.11337908  0.08401882     0.18200
H1983       H  0.42433430  0.09652714  0.08260522     0.14500
H1984       H  0.37209580  0.11338408  0.04432867     0.14300
H1985       H  0.41708539  0.08258747  0.04740638     0.32500
H1986       H  0.38013766  0.12745033  0.07933220     0.35200
C1987       C  0.48555458  0.93893739  0.88400547     0.20800
C1988       C  0.47268317  0.93750576  0.88035835    -0.39000
C1989       C  0.47074243  0.93676588  0.86811151     0.19800
C1990       C  0.48081878  0.93766403  0.86006711     0.22500
C1991       C  0.49375727  0.93889018  0.86373134    -0.39500
C1992       C  0.49573173  0.93937678  0.87603454     0.21300
N1993       N  0.48986866  0.93992591  0.89516307    -0.32800
C1994       C  0.50290813  0.94079856  0.89436641    -0.10400
C1995       C  0.50697476  0.94041840  0.88257560    -0.29200
N1996       N  0.47633029  0.93692015  0.84890935    -0.45800
C1997       C  0.46336247  0.93526493  0.84992826    -0.05100
C1998       C  0.45952571  0.93508732  0.86175193    -0.22400
H1999       H  0.46475990  0.93694790  0.88661066     0.19400
H2000       H  0.50168536  0.93938156  0.85748034     0.18200
H2001       H  0.51677705  0.94106246  0.87925251     0.14500
H2002       H  0.44982167  0.93397074  0.86521236     0.14300
H2003       H  0.48427589  0.93987793  0.90287324     0.32500
H2004       H  0.48175322  0.93723934  0.84110600     0.35200
C2005       C  0.60450662  0.90194021  0.95300440     0.20800
C2006       C  0.61456041  0.89752175  0.96037750    -0.39000
C2007       C  0.62193795  0.88709898  0.95592330     0.19800
C2008       C  0.61935641  0.88147404  0.94504055     0.22500
C2009       C  0.60936991  0.88589684  0.93769226    -0.39500
C2010       C  0.60211721  0.89635644  0.94207215     0.21300
N2011       N  0.59616307  0.91175659  0.95507376    -0.32800
C2012       C  0.58847974  0.91241929  0.94534586    -0.10400
C2013       C  0.59194538  0.90297989  0.93705330    -0.29200
N2014       N  0.62785255  0.87195925  0.94264604    -0.45800
C2015       C  0.63605761  0.87154568  0.95198348    -0.05100
C2016       C  0.63266310  0.88082334  0.96049716    -0.22400
H2017       H  0.61658896  0.90196908  0.96886349     0.19400
H2018       H  0.60748246  0.88159884  0.92911478     0.18200
H2019       H  0.58754604  0.90111027  0.92853169     0.14500
H2020       H  0.63750989  0.88285997  0.96878152     0.14300
H2021       H  0.59574098  0.91762884  0.96261450     0.32500
H2022       H  0.62822466  0.86634067  0.93494551     0.35200
C2023       C  0.51687657  0.99427436  0.99807340     0.20800
C2024       C  0.51987055  0.00044448  0.00882522    -0.39000
C2025       C  0.51025488  0.00869176  0.01341259     0.19800
C2026       C  0.49854426  0.01062681  0.00774731     0.22500
C2027       C  0.49553889  0.00442848  0.99701497    -0.39500
C2028       C  0.50516409  0.99620569  0.99241208     0.21300
N2029       N  0.52440321  0.98606699  0.99183907    -0.32800
C2030       C  0.51743790  0.98273455  0.98212662    -0.10400
C2031       C  0.50538049  0.98887802  0.98218720    -0.29200
N2032       N  0.49110627  0.01902148  0.01386165    -0.45800
C2033       C  0.49813217  0.02248236  0.02349291    -0.05100
C2034       C  0.51012695  0.01620846  0.02352029    -0.22400
H2035       H  0.52903605  0.99898760  0.01325910     0.19400
H2036       H  0.48640679  0.00595003  0.99254314     0.18200
H2037       H  0.49779218  0.98811678  0.97563125     0.14500
H2038       H  0.51775732  0.01705324  0.03002732     0.14300
H2039       H  0.53370861  0.98295363  0.99406318     0.32500
H2040       H  0.48183932  0.02221117  0.01159089     0.35200
C2041       C  0.02063333  0.94636500  0.12839958     0.20800
C2042       C  0.02694048  0.95289390  0.13767304    -0.39000
C2043       C  0.03340563  0.94489938  0.14583956     0.19800
C2044       C  0.03368339  0.93146969  0.14473132     0.22500
C2045       C  0.02724132  0.92495130  0.13557256    -0.39500
C2046       C  0.02064743  0.93291235  0.12752043     0.21300
N2047       N  0.01399222  0.95169020  0.11938783    -0.32800
C2048       C  0.00959920  0.94152315  0.11287553    -0.10400
C2049       C  0.01350631  0.92966511  0.11768474    -0.29200
N2050       N  0.04101964  0.92611072  0.15322646    -0.45800
C2051       C  0.04540294  0.93616444  0.15986209    -0.05100
C2052       C  0.04076920  0.94805244  0.15560722    -0.22400
H2053       H  0.02693197  0.96340651  0.13840215     0.19400
H2054       H  0.02743958  0.91445152  0.13472402     0.18200
H2055       H  0.01154014  0.91999090  0.11433305     0.14500
H2056       H  0.04292047  0.95770432  0.15891491     0.14300
H2057       H  0.01242072  0.96159553  0.11783388     0.32500
H2058       H  0.04306610  0.91621997  0.15432883     0.35200
C2059       C  0.04394660  0.06714006  0.37015139     0.20800
C2060       C  0.04269199  0.06830181  0.38247055    -0.39000
C2061       C  0.03060276  0.06487757  0.38714041     0.19800
C2062       C  0.02043611  0.06085274  0.38005849     0.22500
C2063       C  0.02175881  0.05948667  0.36772974    -0.39500
C2064       C  0.03395265  0.06270114  0.36307079     0.21300
N2065       N  0.05448809  0.06973366  0.36362554    -0.32800
C2066       C  0.05130113  0.06675155  0.35231185    -0.10400
C2067       C  0.03857005  0.06228590  0.35159329    -0.29200
N2068       N  0.00987868  0.05841542  0.38666681    -0.45800
C2069       C  0.01346792  0.06065459  0.39803058    -0.05100
C2070       C  0.02632490  0.06465190  0.39869025    -0.22400
H2071       H  0.05058405  0.07155652  0.38802182     0.19400
H2072       H  0.01390214  0.05612480  0.36219055     0.18200
H2073       H  0.03338921  0.05923765  0.34374617     0.14500
H2074       H  0.03175591  0.06716194  0.40655422     0.14300
H2075       H  0.06339254  0.07310703  0.36672824     0.32500
H2076       H  0.00087230  0.05519512  0.38367621     0.35200
C2077       C  0.08806412  0.01035042  0.26155286     0.20800
C2078       C  0.08047314  0.00148890  0.25520412    -0.39000
C2079       C  0.08728767  0.99198898  0.24886787     0.19800
C2080       C  0.10065828  0.99118747  0.24896548     0.22500
C2081       C  0.10828885  0.00021265  0.25519876    -0.39500
C2082       C  0.10145107  0.00988042  0.26142529     0.21300
N2083       N  0.08384180  0.02016776  0.26837082    -0.32800
C2084       C  0.09458592  0.02613611  0.27253908    -0.10400
C2085       C  0.10578717  0.02007450  0.26834563    -0.29200
N2086       N  0.10472970  0.98126744  0.24209863    -0.45800
C2087       C  0.09384534  0.97596748  0.23745023    -0.05100
C2088       C  0.08281254  0.98238092  0.24148081    -0.22400
H2089       H  0.07001450  0.00200776  0.25513915     0.19400
H2090       H  0.11874971  0.99978602  0.25515133     0.18200
H2091       H  0.11571719  0.02257036  0.27034686     0.14500
H2092       H  0.07285309  0.98041533  0.23913503     0.14300
H2093       H  0.07422062  0.02265766  0.27008094     0.32500
H2094       H  0.11428660  0.97861326  0.24029801     0.35200
C2095       C  0.32269307  0.21648181  0.11622114     0.20800
C2096       C  0.32944575  0.22476136  0.12395946    -0.39000
C2097       C  0.32178434  0.23201137  0.13184377     0.19800
C2098       C  0.30844080  0.23092060  0.13209813     0.22500
C2099       C  0.30168548  0.22277675  0.12426407    -0.39500
C2100       C  0.30932901  0.21566964  0.11628080     0.21300
N2101       N  0.32772874  0.20843454  0.10803380    -0.32800
C2102       C  0.31749942  0.20255807  0.10275265    -0.10400
C2103       C  0.30584956  0.20687204  0.10762261    -0.29200
N2104       N  0.30340626  0.23852763  0.14061135    -0.45800
C2105       C  0.31357300  0.24467177  0.14572263    -0.05100
C2106       C  0.32521574  0.24090136  0.14046715    -0.22400
H2107       H  0.33989103  0.22547189  0.12387242     0.19400
H2108       H  0.29124591  0.22198933  0.12441248     0.18200
H2109       H  0.29616505  0.20379259  0.10531026     0.14500
H2110       H  0.33487415  0.24406404  0.14277807     0.14300
H2111       H  0.33752601  0.20705335  0.10614093     0.32500
H2112       H  0.29362588  0.23955638  0.14275213     0.35200
C2113       C  0.15378289  0.15541410  0.31744205     0.20800
C2114       C  0.14434845  0.14807058  0.32332942    -0.39000
C2115       C  0.14112375  0.13618139  0.31803659     0.19800
C2116       C  0.14683732  0.13187725  0.30766170     0.22500
C2117       C  0.15631810  0.13924255  0.30175413    -0.39500
C2118       C  0.15954955  0.15118954  0.30706100     0.21300
N2119       N  0.15851355  0.16702498  0.32073769    -0.32800
C2120       C  0.16739323  0.17027984  0.31242132    -0.10400
C2121       C  0.16830176  0.16065252  0.30371203    -0.29200
N2122       N  0.14188553  0.12029584  0.30440218    -0.45800
C2123       C  0.13295380  0.11727447  0.31277797    -0.05100
C2124       C  0.13225664  0.12694407  0.32142446    -0.22400
H2125       H  0.13981911  0.15139242  0.33143107     0.19400
H2126       H  0.16080382  0.13594664  0.29362466     0.18200
H2127       H  0.17457490  0.16053473  0.29603635     0.14500
H2128       H  0.12599562  0.12727697  0.32910192     0.14300
H2129       H  0.15587318  0.17235942  0.32823338     0.32500
H2130       H  0.14433740  0.11487387  0.29690401     0.35200
C2131       C  0.25983938  0.25108122  0.24149419     0.20800
C2132       C  0.25153200  0.24105332  0.24514995    -0.39000
C2133       C  0.24727040  0.24178059  0.25691485     0.19800
C2134       C  0.25106578  0.25169552  0.26445469     0.22500
C2135       C  0.25940306  0.26169350  0.26081336    -0.39500
C2136       C  0.26361041  0.26100296  0.24903636     0.21300
N2137       N  0.26490460  0.25282370  0.23066556    -0.32800
C2138       C  0.27190864  0.26396218  0.23130203    -0.10400
C2139       C  0.27138781  0.26931581  0.24264180    -0.29200
N2140       N  0.24557882  0.25027317  0.27514091    -0.45800
C2141       C  0.23821934  0.23938377  0.27440904    -0.05100
C2142       C  0.23900879  0.23380917  0.26316889    -0.22400
H2143       H  0.24848730  0.23335356  0.23923055     0.19400
H2144       H  0.26227931  0.26950992  0.26667724     0.18200
H2145       H  0.27591178  0.27818251  0.24574499     0.14500
H2146       H  0.23419957  0.22512540  0.25999786     0.14300
H2147       H  0.26352613  0.24687062  0.22327671     0.32500
H2148       H  0.24675037  0.25639025  0.28244867     0.35200
C2149       C  0.37064957  0.36653613  0.20270439     0.20800
C2150       C  0.35923125  0.36099087  0.20726955    -0.39000
C2151       C  0.35533371  0.34919478  0.20202838     0.19800
C2152       C  0.36228942  0.34345718  0.19294076     0.22500
C2153       C  0.37367739  0.34895878  0.18842810    -0.39500
C2154       C  0.37756680  0.36068351  0.19365832     0.21300
N2155       N  0.37636710  0.37773725  0.20602655    -0.32800
C2156       C  0.38699216  0.37898055  0.19903445    -0.10400
C2157       C  0.38804305  0.36850552  0.19122715    -0.29200
N2158       N  0.35656632  0.33243472  0.18932017    -0.45800
C2159       C  0.34586112  0.33102222  0.19612663    -0.05100
C2160       C  0.34476114  0.34128636  0.20421257    -0.22400
H2161       H  0.35377150  0.36554059  0.21433026     0.19400
H2162       H  0.37908573  0.34446165  0.18130625     0.18200
H2163       H  0.39542192  0.36685754  0.18459121     0.14500
H2164       H  0.33721173  0.34281853  0.21071145     0.14300
H2165       H  0.37320045  0.38414577  0.21259985     0.32500
H2166       H  0.35979499  0.32625279  0.18259338     0.35200
C2167       C  0.42622768  0.50914460  0.25857153     0.20800
C2168       C  0.43371574  0.50051040  0.25182440    -0.39000
C2169       C  0.42683239  0.49088608  0.24570768     0.19800
C2170       C  0.41351127  0.48973434  0.24642929     0.22500
C2171       C  0.40597729  0.49854530  0.25303500    -0.39500
C2172       C  0.41286301  0.50837197  0.25898883     0.21300
N2173       N  0.43051936  0.51908260  0.26520788    -0.32800
C2174       C  0.41983165  0.52487452  0.26973708    -0.10400
C2175       C  0.40860094  0.51853324  0.26601893    -0.29200
N2176       N  0.40934901  0.47968755  0.23977630    -0.45800
C2177       C  0.42009604  0.47464805  0.23461555    -0.05100
C2178       C  0.43115772  0.48138533  0.23808933    -0.22400
H2179       H  0.44414251  0.50129355  0.25130232     0.19400
H2180       H  0.39553911  0.49786242  0.25343566     0.18200
H2181       H  0.39871272  0.52087054  0.26835200     0.14500
H2182       H  0.44103220  0.47962249  0.23532175     0.14300
H2183       H  0.44014128  0.52183964  0.26649690     0.32500
H2184       H  0.39978598  0.47673068  0.23849230     0.35200
C2185       C  0.32418630  0.76760393  0.37486280     0.20800
C2186       C  0.33263928  0.77390663  0.38275629    -0.39000
C2187       C  0.32678225  0.78241292  0.39092334     0.19800
C2188       C  0.31353245  0.78435020  0.39125295     0.22500
C2189       C  0.30513625  0.77820733  0.38327719    -0.39500
C2190       C  0.31098234  0.76983718  0.37506410     0.21300
N2191       N  0.32725257  0.75905848  0.36625863    -0.32800
C2192       C  0.31591529  0.75600605  0.36087908    -0.10400
C2193       C  0.30558188  0.76256427  0.36611509    -0.29200
N2194       N  0.31030557  0.79271171  0.39990993    -0.45800
C2195       C  0.32157009  0.79628722  0.40508987    -0.05100
C2196       C  0.33208849  0.79009748  0.39970487    -0.22400
H2197       H  0.34298872  0.77231706  0.38255105     0.19400
H2198       H  0.29479363  0.77984119  0.38344561     0.18200
H2199       H  0.29546148  0.76204542  0.36371986     0.14500
H2200       H  0.34221834  0.79102376  0.40196178     0.14300
H2201       H  0.33648274  0.75569726  0.36405235     0.32500
H2202       H  0.30100282  0.79591715  0.40205440     0.35200
C2203       C  0.37796781  0.63921543  0.30977486     0.20800
C2204       C  0.37501667  0.65050899  0.31618047    -0.39000
C2205       C  0.36478318  0.65796862  0.31175913     0.19800
C2206       C  0.35797393  0.65448416  0.30170399     0.22500
C2207       C  0.36090452  0.64310574  0.29528847    -0.39500
C2208       C  0.37117888  0.63558475  0.29974688     0.21300
N2209       N  0.38732473  0.63059260  0.31220037    -0.32800
C2210       C  0.38655387  0.62130306  0.30371513    -0.10400
C2211       C  0.37655381  0.62403857  0.29576791    -0.29200
N2212       N  0.34863343  0.66326391  0.29942243    -0.45800
C2213       C  0.34953619  0.67234161  0.30812473    -0.05100
C2214       C  0.35951077  0.66935626  0.31595973    -0.22400
H2215       H  0.38031817  0.65328663  0.32404547     0.19400
H2216       H  0.35557839  0.64031219  0.28744399     0.18200
H2217       H  0.37368131  0.61841951  0.28810275     0.14500
H2218       H  0.36247006  0.67472931  0.32374108     0.14300
H2219       H  0.39380766  0.63101930  0.31927542     0.32500
H2220       H  0.34201139  0.66302302  0.29244913     0.35200
C2221       C  0.14700190  0.84316564  0.19392667     0.20800
C2222       C  0.13713011  0.85023108  0.18830788    -0.39000
C2223       C  0.13308989  0.86161679  0.19410001     0.19800
C2224       C  0.13850204  0.86571370  0.20466314     0.22500
C2225       C  0.14836684  0.85860771  0.21031608    -0.39500
C2226       C  0.15239020  0.84716666  0.20453045     0.21300
N2227       N  0.15255350  0.83208037  0.19014573    -0.32800
C2228       C  0.16157069  0.82891752  0.19837899    -0.10400
C2229       C  0.16174274  0.83811005  0.20751437    -0.29200
N2230       N  0.13307944  0.87697590  0.20824492    -0.45800
C2231       C  0.12411778  0.88003610  0.19991786    -0.05100
C2232       C  0.12383595  0.87064779  0.19097863    -0.22400
H2233       H  0.13292288  0.84710467  0.18000863     0.19400
H2234       H  0.15263236  0.86178049  0.21857439     0.18200
H2235       H  0.16792245  0.83821207  0.21524209     0.14500
H2236       H  0.11778342  0.87050935  0.18316670     0.14300
H2237       H  0.15033876  0.82701399  0.18239198     0.32500
H2238       H  0.13534855  0.88224589  0.21587429     0.35200
C2239       C  0.24964399  0.74888838  0.24296326     0.20800
C2240       C  0.25823987  0.73893840  0.24628183    -0.39000
C2241       C  0.26225509  0.73911951  0.25814750     0.19800
C2242       C  0.25800028  0.74848131  0.26606641     0.22500
C2243       C  0.24939375  0.75839368  0.26275450    -0.39500
C2244       C  0.24540119  0.75822938  0.25090390     0.21300
N2245       N  0.24448981  0.75094504  0.23221024    -0.32800
C2246       C  0.23690416  0.76167063  0.23331743    -0.10400
C2247       C  0.23722878  0.76648346  0.24485938    -0.29200
N2248       N  0.26342057  0.74671955  0.27673766    -0.45800
C2249       C  0.27122731  0.73617989  0.27563781    -0.05100
C2250       C  0.27073076  0.73113062  0.26416607    -0.22400
H2251       H  0.26162579  0.73166720  0.24006717     0.19400
H2252       H  0.24612452  0.76575330  0.26893334     0.18200
H2253       H  0.23216551  0.77486656  0.24836723     0.14500
H2254       H  0.27601085  0.72288763  0.26064781     0.14300
H2255       H  0.24603750  0.74535990  0.22461216     0.32500
H2256       H  0.26200668  0.75247464  0.28425314     0.35200
C2257       C  0.20074542  0.72947933  0.13392650     0.20800
C2258       C  0.20755549  0.72073444  0.12666515    -0.39000
C2259       C  0.20047464  0.71524865  0.11731993     0.19800
C2260       C  0.18755241  0.71812736  0.11546293     0.22500
C2261       C  0.18077895  0.72697803  0.12264957    -0.39500
C2262       C  0.18790617  0.73258806  0.13190658     0.21300
N2263       N  0.20529752  0.73599866  0.14335685    -0.32800
C2264       C  0.19534739  0.74345541  0.14729127    -0.10400
C2265       C  0.18432523  0.74159392  0.14036967    -0.29200
N2266       N  0.18289468  0.71128730  0.10626462    -0.45800
C2267       C  0.19294147  0.70407762  0.10216305    -0.05100
C2268       C  0.20410527  0.70635423  0.10878084    -0.22400
H2269       H  0.21761909  0.71836141  0.12819375     0.19400
H2270       H  0.17069761  0.72930156  0.12115720     0.18200
H2271       H  0.17496057  0.74617110  0.14140879     0.14500
H2272       H  0.21349433  0.70183751  0.10770364     0.14300
H2273       H  0.21466751  0.73554611  0.14678243     0.32500
H2274       H  0.17343944  0.71147074  0.10301780     0.35200
C2275       C  0.31009018  0.73253074  0.87583176     0.20800
C2276       C  0.30351724  0.72282588  0.88222309    -0.39000
C2277       C  0.31064575  0.71671032  0.89122070     0.19800
C2278       C  0.32339605  0.71991940  0.89354281     0.22500
C2279       C  0.32991016  0.72974164  0.88725667    -0.39500
C2280       C  0.32273774  0.73595736  0.87835012     0.21300
N2281       N  0.30563837  0.73937292  0.86654808    -0.32800
C2282       C  0.31548065  0.74727184  0.86314468    -0.10400
C2283       C  0.32628615  0.74550685  0.87037162    -0.29200
N2284       N  0.32818244  0.71237805  0.90222039    -0.45800
C2285       C  0.31838082  0.70441749  0.90558166    -0.05100
C2286       C  0.30724771  0.70686192  0.89895645    -0.22400
H2287       H  0.29363226  0.72013208  0.88024135     0.19400
H2288       H  0.33988748  0.73223311  0.88906073     0.18200
H2289       H  0.33563149  0.75017622  0.86958845     0.14500
H2290       H  0.29801161  0.70194789  0.89957682     0.14300
H2291       H  0.29651945  0.73854725  0.86264760     0.32500
H2292       H  0.33753383  0.71269307  0.90570284     0.35200
C2293       C  0.26962003  0.65534895  0.00155860     0.20800
C2294       C  0.26646305  0.65528181  0.01366279    -0.39000
C2295       C  0.25318935  0.65524396  0.01632694     0.19800
C2296       C  0.24379439  0.65505820  0.00759980     0.22500
C2297       C  0.24694911  0.65531946  0.99550979    -0.39500
C2298       C  0.26020673  0.65557048  0.99284974     0.21300
N2299       N  0.28150472  0.65572014  0.99670741    -0.32800
C2300       C  0.27962528  0.65643015  0.98484028    -0.10400
C2301       C  0.26647350  0.65636729  0.98209683    -0.29200
N2302       N  0.23189820  0.65511303  0.01241690    -0.45800
C2303       C  0.23371189  0.65557709  0.02429428    -0.05100
C2304       C  0.24686353  0.65568629  0.02708246    -0.22400
H2305       H  0.27379433  0.65543796  0.02049744     0.19400
H2306       H  0.23961536  0.65550428  0.98867796     0.18200
H2307       H  0.26209535  0.65692698  0.97341049     0.14500
H2308       H  0.25119698  0.65613405  0.03579300     0.14300
H2309       H  0.29033119  0.65587973  0.00119866     0.32500
H2310       H  0.22308893  0.65523129  0.00789503     0.35200
C2311       C  0.41367837  0.60900486  0.94620257     0.20800
C2312       C  0.40683238  0.61904177  0.94060283    -0.39000
C2313       C  0.39609066  0.62384401  0.94677492     0.19800
C2314       C  0.39235979  0.61900320  0.95769141     0.22500
C2315       C  0.39930926  0.60900335  0.96337669    -0.39500
C2316       C  0.41014493  0.60421783  0.95719854     0.21300
N2317       N  0.42407851  0.60268984  0.94199923    -0.32800
C2318       C  0.42733163  0.59383031  0.95037174    -0.10400
C2319       C  0.41888515  0.59450487  0.96003473    -0.29200
N2320       N  0.38147355  0.62493555  0.96144165    -0.45800
C2321       C  0.37832191  0.63361703  0.95283613    -0.05100
C2322       C  0.38727291  0.63324144  0.94359822    -0.22400
H2323       H  0.40958617  0.62274318  0.93198717     0.19400
H2324       H  0.39642025  0.60514595  0.97189799     0.18200
H2325       H  0.41903645  0.58861201  0.96798008     0.14500
H2326       H  0.38716719  0.63883210  0.93547602     0.14300
H2327       H  0.42871195  0.60438128  0.93392178     0.32500
H2328       H  0.37642169  0.62306308  0.96927127     0.35200
C2329       C  0.48010871  0.42713058  0.14350152     0.20800
C2330       C  0.48791402  0.42048848  0.13530667    -0.39000
C2331       C  0.49389281  0.42828953  0.12669552     0.19800
C2332       C  0.49208564  0.44164506  0.12621889     0.22500
C2333       C  0.48445024  0.44829967  0.13450880    -0.39500
C2334       C  0.47860174  0.44052868  0.14318782     0.21300
N2335       N  0.47296596  0.42192450  0.15224641    -0.32800
C2336       C  0.46697134  0.43210267  0.15757592    -0.10400
C2337       C  0.47033449  0.44387364  0.15224606    -0.29200
N2338       N  0.49844859  0.44679273  0.11697908    -0.45800
C2339       C  0.50450338  0.43668427  0.11161799    -0.05100
C2340       C  0.50194076  0.42497405  0.11743199    -0.22400
H2341       H  0.48912116  0.41001808  0.13553642     0.19400
H2342       H  0.48304445  0.45874066  0.13414284     0.18200
H2343       H  0.46683177  0.45351728  0.15442579     0.14500
H2344       H  0.50533789  0.41533849  0.11508965     0.14300
H2345       H  0.47211302  0.41205969  0.15437172     0.32500
H2346       H  0.49874104  0.45660236  0.11453526     0.35200
C2347       C  0.51259548  0.51289172  0.99750930     0.20800
C2348       C  0.52190404  0.50337957  0.00018241    -0.39000
C2349       C  0.52051281  0.49721769  0.01119318     0.19800
C2350       C  0.51064431  0.50034932  0.01897670     0.22500
C2351       C  0.50131613  0.50986786  0.01629881    -0.39500
C2352       C  0.50266687  0.51598457  0.00524411     0.21300
N2353       N  0.51159547  0.51983374  0.98747438    -0.32800
C2354       C  0.50089854  0.52735896  0.98875149    -0.10400
C2355       C  0.49508511  0.52526505  0.99975547    -0.29200
N2356       N  0.51141963  0.49303306  0.02882465    -0.45800
C2357       C  0.52184126  0.48515625  0.02729596    -0.05100
C2358       C  0.52774776  0.48748255  0.01638414    -0.22400
H2359       H  0.52958681  0.50086279  0.99407815     0.19400
H2360       H  0.49350731  0.51223023  0.02231957     0.18200
H2361       H  0.48636925  0.52973048  0.00318608     0.14500
H2362       H  0.53620690  0.48272750  0.01274528     0.14300
H2363       H  0.51768770  0.51924892  0.98011146     0.32500
H2364       H  0.50519781  0.49336993  0.03610919     0.35200
C2365       C  0.09815130  0.60866729  0.06184508     0.20800
C2366       C  0.10427278  0.61971864  0.06653006    -0.39000
C2367       C  0.11602795  0.62319873  0.06118571     0.19800
C2368       C  0.12129838  0.61624017  0.05186078     0.22500
C2369       C  0.11514957  0.60518074  0.04715075    -0.39500
C2370       C  0.10338055  0.60167383  0.05252059     0.21300
N2371       N  0.08712589  0.60313547  0.06565172    -0.32800
C2372       C  0.08529608  0.59248733  0.05874378    -0.10400
C2373       C  0.09521554  0.59129153  0.05040075    -0.29200
N2374       N  0.13272373  0.62139511  0.04855883    -0.45800
C2375       C  0.13474391  0.63169186  0.05586574    -0.05100
C2376       C  0.12450807  0.63311445  0.06383633    -0.22400
H2377       H  0.10026946  0.62510411  0.07391482     0.19400
H2378       H  0.11930766  0.59961371  0.03995298     0.18200
H2379       H  0.09644925  0.58370323  0.04384725     0.14500
H2380       H  0.12347175  0.64032200  0.07076276     0.14300
H2381       H  0.08134023  0.60631201  0.07266524     0.32500
H2382       H  0.13883549  0.61799942  0.04186770     0.35200
C2383       C  0.03420681  0.43247411  0.88742946     0.20800
C2384       C  0.04699674  0.43028045  0.88380627    -0.39000
C2385       C  0.04929379  0.43131527  0.87161672     0.19800
C2386       C  0.03964805  0.43453952  0.86364063     0.22500
C2387       C  0.02677716  0.43654086  0.86725258    -0.39500
C2388       C  0.02442056  0.43526451  0.87945752     0.21300
N2389       N  0.02963891  0.43230328  0.89855345    -0.32800
C2390       C  0.01680991  0.43479759  0.89769618    -0.10400
C2391       C  0.01313765  0.43661023  0.88591681    -0.29200
N2392       N  0.04443639  0.43515299  0.85256912    -0.45800
C2393       C  0.05715070  0.43205679  0.85352234    -0.05100
C2394       C  0.06052278  0.42957853  0.86525549    -0.22400
H2395       H  0.05460793  0.42794248  0.89003040     0.19400
H2396       H  0.01917402  0.43891065  0.86103122     0.18200
H2397       H  0.00360921  0.43898390  0.88258886     0.14500
H2398       H  0.06994403  0.42694003  0.86867473     0.14300
H2399       H  0.03493069  0.43059540  0.90627650     0.32500
H2400       H  0.03933628  0.43728719  0.84482785     0.35200
C2401       C  0.01605995  0.48330012  0.99791501     0.20800
C2402       C  0.02601145  0.49175053  0.00146120    -0.39000
C2403       C  0.02455011  0.49739196  0.01270149     0.19800
C2404       C  0.01401074  0.49475181  0.01987141     0.22500
C2405       C  0.00403964  0.48632611  0.01631296    -0.39500
C2406       C  0.00546893  0.48073646  0.00504572     0.21300
N2407       N  0.01499817  0.47705108  0.98750870    -0.32800
C2408       C  0.00359479  0.47053089  0.98794917    -0.10400
C2409       C  0.99739067  0.47255576  0.99878178    -0.29200
N2410       N  0.01477349  0.50149596  0.03004500    -0.45800
C2411       C  0.02584923  0.50854965  0.02934897    -0.05100
C2412       C  0.03222053  0.50623293  0.01864704    -0.22400
H2413       H  0.03420414  0.49390455  0.99581749     0.19400
H2414       H  0.99570082  0.48440357  0.02184603     0.18200
H2415       H  0.98812786  0.46875718  0.00161363     0.14500
H2416       H  0.04116919  0.51053183  0.01557185     0.14300
H2417       H  0.02151408  0.47745836  0.98044828     0.32500
H2418       H  0.00804506  0.50143601  0.03694512     0.35200
C2419       C  0.62018609  0.37648299  0.06005849     0.20800
C2420       C  0.60926213  0.37988328  0.06676931    -0.39000
C2421       C  0.60163084  0.38997651  0.06214996     0.19800
C2422       C  0.60462690  0.39623812  0.05164938     0.22500
C2423       C  0.61559903  0.39285246  0.04494194    -0.39500
C2424       C  0.62325676  0.38273759  0.04957092     0.21300
N2425       N  0.62887234  0.36711974  0.06250054    -0.32800
C2426       C  0.63759615  0.36737745  0.05352279    -0.10400
C2427       C  0.63443289  0.37703158  0.04529251    -0.29200
N2428       N  0.59577389  0.40548476  0.04919099    -0.45800
C2429       C  0.58708487  0.40509710  0.05820427    -0.05100
C2430       C  0.59044297  0.39553011  0.06644215    -0.22400
H2431       H  0.60685104  0.37499042  0.07497049     0.19400
H2432       H  0.61798257  0.39771163  0.03672004     0.18200
H2433       H  0.63954458  0.37947513  0.03722751     0.14500
H2434       H  0.58539753  0.39296688  0.07451122     0.14300
H2435       H  0.62883110  0.36093375  0.06984111     0.32500
H2436       H  0.59566669  0.41166742  0.04184725     0.35200
C2437       C  0.91371171  0.39543166  0.94030212     0.20800
C2438       C  0.90643552  0.38612629  0.93414137    -0.39000
C2439       C  0.89565364  0.38117341  0.94016030     0.19800
C2440       C  0.89230999  0.38518203  0.95145511     0.22500
C2441       C  0.89965513  0.39446790  0.95766524    -0.39500
C2442       C  0.91049969  0.39942223  0.95163615     0.21300
N2443       N  0.92433775  0.40162622  0.93644198    -0.32800
C2444       C  0.92802377  0.40962533  0.94536858    -0.10400
C2445       C  0.91962813  0.40851629  0.95502705    -0.29200
N2446       N  0.88146168  0.37912218  0.95509788    -0.45800
C2447       C  0.87793168  0.37119038  0.94604610    -0.05100
C2448       C  0.88658506  0.37220132  0.93660354    -0.22400
H2449       H  0.90895555  0.38301184  0.92527681     0.19400
H2450       H  0.89708893  0.39763946  0.96650010     0.18200
H2451       H  0.92012205  0.41366098  0.96337673     0.14500
H2452       H  0.88621916  0.36718319  0.92818514     0.14300
H2453       H  0.92883316  0.40039417  0.92823273     0.32500
H2454       H  0.87673771  0.38035666  0.96319934     0.35200
C2455       C  0.76975287  0.34540961  0.99507380     0.20800
C2456       C  0.76657047  0.34404144  0.00709586    -0.39000
C2457       C  0.75330555  0.34371887  0.00972064     0.19800
C2458       C  0.74391259  0.34493835  0.00106095     0.22500
C2459       C  0.74709327  0.34612685  0.98900929    -0.39500
C2460       C  0.76037109  0.34619502  0.98636094     0.21300
N2461       N  0.78165289  0.34544528  0.99026518    -0.32800
C2462       C  0.77985047  0.34598602  0.97839202    -0.10400
C2463       C  0.76670479  0.34646995  0.97560511    -0.29200
N2464       N  0.73201600  0.34414417  0.00584478    -0.45800
C2465       C  0.73386055  0.34213031  0.01759170    -0.05100
C2466       C  0.74700797  0.34181271  0.02034554    -0.22400
H2467       H  0.77388753  0.34301878  0.01388170     0.19400
H2468       H  0.73977256  0.34667359  0.98218104     0.18200
H2469       H  0.76237600  0.34676377  0.96688634     0.14500
H2470       H  0.75136243  0.34025928  0.02894213     0.14300
H2471       H  0.79044490  0.34463486  0.99475789     0.32500
H2472       H  0.72319796  0.34450067  0.00134794     0.35200
C2473       C  0.75801190  0.65956514  0.51678897     0.20800
C2474       C  0.74453916  0.65941007  0.51513208    -0.39000
C2475       C  0.74032702  0.65957554  0.50331347     0.19800
C2476       C  0.74889155  0.66010621  0.49389493     0.22500
C2477       C  0.76235193  0.66008312  0.49554855    -0.39500
C2478       C  0.76656384  0.65968194  0.50735070     0.21300
N2479       N  0.76445790  0.65958970  0.52712587    -0.32800
C2480       C  0.77720305  0.65952038  0.52425392    -0.10400
C2481       C  0.77890261  0.65951477  0.51199607    -0.29200
N2482       N  0.74248341  0.66051396  0.48355608    -0.45800
C2483       C  0.72974504  0.66002806  0.48637527    -0.05100
C2484       C  0.72799994  0.65938849  0.49862119    -0.22400
H2485       H  0.73783689  0.65917302  0.52249840     0.19400
H2486       H  0.76905348  0.66035327  0.48818324     0.18200
H2487       H  0.78793841  0.65964826  0.50714994     0.14500
H2488       H  0.71894663  0.65903543  0.50343201     0.14300
H2489       H  0.76043677  0.65957733  0.53561470     0.32500
H2490       H  0.74653437  0.66095045  0.47508805     0.35200
C2491       C  0.01582519  0.56768239  0.63221794     0.20800
C2492       C  0.02203383  0.57648857  0.63982528    -0.39000
C2493       C  0.03080438  0.57098742  0.64787007     0.19800
C2494       C  0.03305240  0.55770487  0.64842583     0.22500
C2495       C  0.02696959  0.54891221  0.64071630    -0.39500
C2496       C  0.01833712  0.55443981  0.63255882     0.21300
N2497       N  0.00732668  0.57050086  0.62359469    -0.32800
C2498       C  0.00455375  0.55899924  0.61828978    -0.10400
C2499       C  0.01122692  0.54875103  0.62364125    -0.29200
N2500       N  0.04175370  0.55493204  0.65689117    -0.45800
C2501       C  0.04522395  0.56654989  0.66162028    -0.05100
C2502       C  0.03863727  0.57679869  0.65620549    -0.22400
H2503       H  0.02028042  0.58687331  0.63941442     0.19400
H2504       H  0.02891097  0.53855417  0.64097349     0.18200
H2505       H  0.01101451  0.53854428  0.62125234     0.14500
H2506       H  0.03944128  0.58709021  0.65814263     0.14300
H2507       H  0.00391844  0.57972652  0.62125177     0.32500
H2508       H  0.04530758  0.54573659  0.65915106     0.35200
C2509       C  0.90845401  0.60454852  0.55464775     0.20800
C2510       C  0.89689173  0.60719771  0.54852692    -0.39000
C2511       C  0.89003833  0.61830079  0.55227751     0.19800
C2512       C  0.89441023  0.62612612  0.56141067     0.22500
C2513       C  0.90596170  0.62351552  0.56747833    -0.39500
C2514       C  0.91277250  0.61243358  0.56375694     0.21300
N2515       N  0.91645289  0.59431557  0.55315819    -0.32800
C2516       C  0.92588432  0.59567599  0.56142971    -0.10400
C2517       C  0.92392009  0.60690737  0.56815924    -0.29200
N2518       N  0.88591433  0.63570020  0.56370277    -0.45800
C2519       C  0.87598577  0.63401356  0.55601390    -0.05100
C2520       C  0.87824969  0.62328998  0.54866822    -0.22400
H2521       H  0.89335950  0.60093211  0.54153580     0.19400
H2522       H  0.90925569  0.62951468  0.57475591     0.18200
H2523       H  0.92969339  0.61041583  0.57548072     0.14500
H2524       H  0.87194117  0.61940880  0.54189232     0.14300
H2525       H  0.91537994  0.58672826  0.54708052     0.32500
H2526       H  0.88672966  0.64278226  0.57029558     0.35200
C2527       C  0.98609539  0.49888799  0.51918293     0.20800
C2528       C  0.98355564  0.49307084  0.50820167    -0.39000
C2529       C  0.99338046  0.48503973  0.50373580     0.19800
C2530       C  0.00488857  0.48297985  0.50970761     0.22500
C2531       C  0.00741605  0.48876585  0.52072631    -0.39500
C2532       C  0.99754506  0.49675034  0.52523249     0.21300
N2533       N  0.97838706  0.50707451  0.52521829    -0.32800
C2534       C  0.98493406  0.51011628  0.53522652    -0.10400
C2535       C  0.99690720  0.50382841  0.53557622    -0.29200
N2536       N  0.01268075  0.47500709  0.50350102    -0.45800
C2537       C  0.00604752  0.47196621  0.49352351    -0.05100
C2538       C  0.99397563  0.47804440  0.49337051    -0.22400
H2539       H  0.97460930  0.49471837  0.50345921     0.19400
H2540       H  0.01639583  0.48718073  0.52543381     0.18200
H2541       H  0.00425194  0.50452586  0.54236829     0.14500
H2542       H  0.98662164  0.47747453  0.48657921     0.14300
H2543       H  0.96925609  0.51040189  0.52266712     0.32500
H2544       H  0.02191704  0.47185358  0.50590866     0.35200
C2545       C  0.49249502  0.56842930  0.37806959     0.20800
C2546       C  0.48593422  0.57768218  0.37113353    -0.39000
C2547       C  0.47809338  0.57263047  0.36208578     0.19800
C2548       C  0.47702102  0.55938208  0.36004165     0.22500
C2549       C  0.48339767  0.55013118  0.36710118    -0.39500
C2550       C  0.49110886  0.55517393  0.37622911     0.21300
N2551       N  0.50057921  0.57072256  0.38714950    -0.32800
C2552       C  0.50419054  0.55885112  0.39125751    -0.10400
C2553       C  0.49845687  0.54890247  0.38468827    -0.29200
N2554       N  0.46938971  0.55707056  0.35065703    -0.45800
C2555       C  0.46544694  0.56890677  0.34673630    -0.05100
C2556       C  0.47059516  0.57887069  0.35369944    -0.22400
H2557       H  0.48691981  0.58804698  0.37263143     0.19400
H2558       H  0.48246217  0.53976782  0.36556611     0.18200
H2559       H  0.49956065  0.53850502  0.38591121     0.14500
H2560       H  0.46927919  0.58925975  0.35260040     0.14300
H2561       H  0.50326657  0.57980710  0.39050406     0.32500
H2562       H  0.46699773  0.54797348  0.34714846     0.35200
C2563       C  0.61458067  0.62428924  0.44702397     0.20800
C2564       C  0.60336382  0.62128630  0.44063074    -0.39000
C2565       C  0.59669460  0.61015294  0.44436722     0.19800
C2566       C  0.60083403  0.60259712  0.45378329     0.22500
C2567       C  0.61207180  0.60562076  0.46020312    -0.39500
C2568       C  0.61878615  0.61676166  0.45643545     0.21300
N2569       N  0.62283936  0.63408556  0.44491405    -0.32800
C2570       C  0.63243492  0.63280295  0.45299973    -0.10400
C2571       C  0.63022522  0.62213325  0.46039453    -0.29200
N2572       N  0.59293348  0.59234008  0.45535239    -0.45800
C2573       C  0.58374991  0.59337234  0.44683343    -0.05100
C2574       C  0.58577096  0.60438150  0.43983564    -0.22400
H2575       H  0.60018008  0.62707669  0.43316979     0.19400
H2576       H  0.61543981  0.59963800  0.46746577     0.18200
H2577       H  0.63630747  0.61859463  0.46749476     0.14500
H2578       H  0.58011716  0.60765158  0.43234291     0.14300
H2579       H  0.62207852  0.64105561  0.43821555     0.32500
H2580       H  0.59385701  0.58500555  0.46170509     0.35200
C2581       C  0.52226676  0.49835355  0.49177169     0.20800
C2582       C  0.52490891  0.49241771  0.50273063    -0.39000
C2583       C  0.51531197  0.48395919  0.50706490     0.19800
C2584       C  0.50394367  0.48161439  0.50096983     0.22500
C2585       C  0.50132279  0.48751670  0.49000375    -0.39500
C2586       C  0.51093503  0.49592392  0.48564750     0.21300
N2587       N  0.52973778  0.50687967  0.48581003    -0.32800
C2588       C  0.52315064  0.50984253  0.47576812    -0.10400
C2589       C  0.51138966  0.50316369  0.47536546    -0.29200
N2590       N  0.49629516  0.47337316  0.50705680    -0.45800
C2591       C  0.50281118  0.47043701  0.51713515    -0.05100
C2592       C  0.51473769  0.47684724  0.51742585    -0.22400
H2593       H  0.53374839  0.49430476  0.50756259     0.19400
H2594       H  0.49243166  0.48572173  0.48522313     0.18200
H2595       H  0.50407630  0.50364119  0.46853089     0.14500
H2596       H  0.52195711  0.47649808  0.52434992     0.14300
H2597       H  0.53876321  0.51043427  0.48840708     0.32500
H2598       H  0.48714212  0.47007736  0.50455392     0.35200
C2599       C  0.20157587  0.27311187  0.37386067     0.20800
C2600       C  0.20772048  0.28242708  0.38100579    -0.39000
C2601       C  0.19991884  0.28831942  0.38965430     0.19800
C2602       C  0.18695829  0.28526168  0.39099191     0.22500
C2603       C  0.18085938  0.27581686  0.38395722    -0.39500
C2604       C  0.18869267  0.26983684  0.37538387     0.21300
N2605       N  0.20680937  0.26627971  0.36490679    -0.32800
C2606       C  0.19723194  0.25848836  0.36078485    -0.10400
C2607       C  0.18579412  0.26040275  0.36712005    -0.29200
N2608       N  0.18157147  0.29252426  0.39958023    -0.45800
C2609       C  0.19120153  0.30016784  0.40382616    -0.05100
C2610       C  0.20280877  0.29777800  0.39790075    -0.22400
H2611       H  0.21780746  0.28495896  0.37986513     0.19400
H2612       H  0.17074208  0.27336997  0.38502638     0.18200
H2613       H  0.17656599  0.25566340  0.36576137     0.14500
H2614       H  0.21204456  0.30249155  0.39929139     0.14300
H2615       H  0.21633441  0.26682069  0.36185301     0.32500
H2616       H  0.17195152  0.29225413  0.40240426     0.35200
C2617       C  0.09319423  0.39205413  0.44737229     0.20800
C2618       C  0.09987618  0.38204932  0.44153368    -0.39000
C2619       C  0.11112311  0.37762224  0.44716266     0.19800
C2620       C  0.11542762  0.38279218  0.45776915     0.22500
C2621       C  0.10868752  0.39275775  0.46365221    -0.39500
C2622       C  0.09738556  0.39714967  0.45804840     0.21300
N2623       N  0.08232305  0.39800239  0.44378306    -0.32800
C2624       C  0.07949168  0.40689423  0.45227063    -0.10400
C2625       C  0.08865091  0.40664555  0.46133415    -0.29200
N2626       N  0.12659526  0.37715669  0.46108167    -0.45800
C2627       C  0.12940543  0.36833896  0.45251463    -0.05100
C2628       C  0.11993273  0.36831266  0.44372007    -0.22400
H2629       H  0.09661376  0.37807732  0.43317569     0.19400
H2630       H  0.11203356  0.39683765  0.47193698     0.18200
H2631       H  0.08892667  0.41264311  0.46920898     0.14500
H2632       H  0.11966741  0.36249784  0.43573311     0.14300
H2633       H  0.07710758  0.39603536  0.43607234     0.32500
H2634       H  0.13204533  0.37932201  0.46860951     0.35200
C2635       C  0.30953093  0.28390027  0.61197149     0.20800
C2636       C  0.30114520  0.27715851  0.61958783    -0.39000
C2637       C  0.30706696  0.26838076  0.62741203     0.19800
C2638       C  0.32031106  0.26636359  0.62754690     0.22500
C2639       C  0.32871686  0.27327499  0.62007963    -0.39500
C2640       C  0.32280423  0.28214080  0.61233327     0.21300
N2641       N  0.30630818  0.29265264  0.60362557    -0.32800
C2642       C  0.31762460  0.29659299  0.59873068    -0.10400
C2643       C  0.32812978  0.29030078  0.60397010    -0.29200
N2644       N  0.32351509  0.25741769  0.63572253    -0.45800
C2645       C  0.31225002  0.25388850  0.64096118    -0.05100
C2646       C  0.30178201  0.26052535  0.63603965    -0.22400
H2647       H  0.29077942  0.27863753  0.61943368     0.19400
H2648       H  0.33908863  0.27184058  0.62027234     0.18200
H2649       H  0.33827874  0.29142194  0.60184402     0.14500
H2650       H  0.29168895  0.25975435  0.63849572     0.14300
H2651       H  0.29700323  0.29583084  0.60147270     0.32500
H2652       H  0.33281390  0.25418831  0.63783622     0.35200
C2653       C  0.39078049  0.38288238  0.56177086     0.20800
C2654       C  0.40079667  0.38768297  0.56891821    -0.39000
C2655       C  0.40960329  0.39605784  0.56332214     0.19800
C2656       C  0.40858368  0.39937611  0.55148475     0.22500
C2657       C  0.39847098  0.39464866  0.54433966    -0.39500
C2658       C  0.38958753  0.38630772  0.54996838     0.21300
N2659       N  0.38135459  0.37458941  0.56497157    -0.32800
C2660       C  0.37398912  0.37275427  0.55518294    -0.10400
C2661       C  0.37878949  0.37995182  0.54564023    -0.29200
N2662       N  0.41840399  0.40724710  0.54825350    -0.45800
C2663       C  0.42569166  0.40897159  0.55813213    -0.05100
C2664       C  0.42045121  0.40216073  0.56769969    -0.22400
H2665       H  0.40172932  0.38500215  0.57814825     0.19400
H2666       H  0.39762590  0.39720869  0.53507544     0.18200
H2667       H  0.37501458  0.38032265  0.53671253     0.14500
H2668       H  0.42417344  0.40157508  0.57663523     0.14300
H2669       H  0.38000877  0.37046467  0.57333714     0.32500
H2670       H  0.42006945  0.41113557  0.53984393     0.35200
C2671       C  0.25799315  0.34711255  0.51309029     0.20800
C2672       C  0.24449420  0.34749915  0.51161504    -0.39000
C2673       C  0.24007665  0.34781549  0.49985697     0.19800
C2674       C  0.24847376  0.34756629  0.49030675     0.22500
C2675       C  0.26197503  0.34742617  0.49178383    -0.39500
C2676       C  0.26639756  0.34730370  0.50354329     0.21300
N2677       N  0.26458468  0.34618190  0.52332331    -0.32800
C2678       C  0.27728866  0.34597563  0.52030556    -0.10400
C2679       C  0.27881319  0.34676848  0.50804110    -0.29200
N2680       N  0.24186572  0.34714453  0.48005896    -0.45800
C2681       C  0.22916080  0.34728608  0.48307456    -0.05100
C2682       C  0.22765630  0.34780641  0.49535485    -0.22400
H2683       H  0.23791063  0.34733163  0.51907157     0.19400
H2684       H  0.26855118  0.34721219  0.48432275     0.18200
H2685       H  0.28777112  0.34650010  0.50307917     0.14500
H2686       H  0.21869766  0.34770885  0.50032093     0.14300
H2687       H  0.26068306  0.34563848  0.53184468     0.32500
H2688       H  0.24576519  0.34668798  0.47153292     0.35200
C2689       C  0.96909732  0.93727830  0.64164054     0.20800
C2690       C  0.96995959  0.93917835  0.62936158    -0.39000
C2691       C  0.98251741  0.93941784  0.62466692     0.19800
C2692       C  0.99339204  0.93771117  0.63164178     0.22500
C2693       C  0.99254119  0.93609038  0.64397820    -0.39500
C2694       C  0.97996582  0.93603089  0.64870787     0.21300
N2695       N  0.95826595  0.93624307  0.64814779    -0.32800
C2696       C  0.96222949  0.93454650  0.65947437    -0.10400
C2697       C  0.97570476  0.93446272  0.66021761    -0.29200
N2698       N  0.00416522  0.93779698  0.62495107    -0.45800
C2699       C  0.00011301  0.93976919  0.61367380    -0.05100
C2700       C  0.98668070  0.94089788  0.61315418    -0.22400
H2701       H  0.96146565  0.94023899  0.62384759     0.19400
H2702       H  0.00102800  0.93483692  0.64946717     0.18200
H2703       H  0.98155788  0.93308486  0.66805963     0.14500
H2704       H  0.98075119  0.94236025  0.60537259     0.14300
H2705       H  0.94874463  0.93671169  0.64508483     0.32500
H2706       H  0.01368381  0.93669667  0.62788130     0.35200
C2707       C  0.97660947  0.07094409  0.86362863     0.20800
C2708       C  0.98945539  0.07053688  0.86763735    -0.39000
C2709       C  0.99101150  0.06965602  0.87995326     0.19800
C2710       C  0.98055580  0.06897856  0.88760859     0.22500
C2711       C  0.96775815  0.06963120  0.88363053    -0.39500
C2712       C  0.96621517  0.07075956  0.87137661     0.21300
N2713       N  0.97247825  0.07160615  0.85236690    -0.32800
C2714       C  0.95940397  0.07210117  0.85304886    -0.10400
C2715       C  0.95513734  0.07167345  0.86473169    -0.29200
N2716       N  0.98453407  0.06779812  0.89883804    -0.45800
C2717       C  0.99761156  0.06795283  0.89838553    -0.05100
C2718       C  0.00205955  0.06916140  0.88677553    -0.22400
H2719       H  0.99761054  0.07086315  0.86162703     0.19400
H2720       H  0.95960130  0.06928418  0.88964017     0.18200
H2721       H  0.94525186  0.07175893  0.86790073     0.14500
H2722       H  0.01199243  0.06944290  0.88374893     0.14300
H2723       H  0.97816140  0.07185062  0.84471702     0.32500
H2724       H  0.97869947  0.06712418  0.90637211     0.35200
C2725       C  0.91638397  0.99065939  0.75060257     0.20800
C2726       C  0.90868564  0.00040986  0.75577192    -0.39000
C2727       C  0.91534337  0.00995739  0.76225563     0.19800
C2728       C  0.92864218  0.00971473  0.76362620     0.22500
C2729       C  0.93636581  0.00005473  0.75832862    -0.39500
C2730       C  0.92971791  0.99060247  0.75170378     0.21300
N2731       N  0.91239461  0.98060332  0.74389763    -0.32800
C2732       C  0.92327061  0.97420809  0.74051502    -0.10400
C2733       C  0.93427567  0.98016517  0.74520729    -0.29200
N2734       N  0.93258040  0.01967433  0.77048052    -0.45800
C2735       C  0.92172298  0.02638715  0.77341275    -0.05100
C2736       C  0.91079029  0.02065302  0.76838061    -0.22400
H2737       H  0.89827228  0.00056363  0.75479954     0.19400
H2738       H  0.94678496  0.99993397  0.75926001     0.18200
H2739       H  0.94425970  0.97729302  0.74396563     0.14500
H2740       H  0.90082173  0.02371007  0.76931182     0.14300
H2741       H  0.90288099  0.97843907  0.74149470     0.32500
H2742       H  0.94206889  0.02175568  0.77301902     0.35200
C2743       C  0.70488632  0.23754093  0.62663138     0.20800
C2744       C  0.71168788  0.22869830  0.61949323    -0.39000
C2745       C  0.70418180  0.22150866  0.61149937     0.19800
C2746       C  0.69088214  0.22288265  0.61078039     0.22500
C2747       C  0.68409526  0.23190866  0.61778139    -0.39500
C2748       C  0.69163853  0.23923067  0.62568633     0.21300
N2749       N  0.70973419  0.24506286  0.63527693    -0.32800
C2750       C  0.69954665  0.25172099  0.63979837    -0.10400
C2751       C  0.68809151  0.24842799  0.63399110    -0.29200
N2752       N  0.68591822  0.21431892  0.60300778    -0.45800
C2753       C  0.69615894  0.20756816  0.59867011    -0.05100
C2754       C  0.70771891  0.21185512  0.60367369    -0.22400
H2755       H  0.72203642  0.22733908  0.62026537     0.19400
H2756       H  0.67369286  0.23297010  0.61727612     0.18200
H2757       H  0.67842915  0.25191678  0.63589221     0.14500
H2758       H  0.71734961  0.20808237  0.60211793     0.14300
H2759       H  0.71937370  0.24554594  0.63800703     0.32500
H2760       H  0.67617154  0.21306649  0.60086292     0.35200
C2761       C  0.82258909  0.28603010  0.88527873     0.20800
C2762       C  0.82892983  0.27684046  0.87810000    -0.39000
C2763       C  0.82091971  0.26942800  0.87065943     0.19800
C2764       C  0.80764818  0.27119004  0.87029779     0.22500
C2765       C  0.80130997  0.28027780  0.87754656    -0.39500
C2766       C  0.80928767  0.28755804  0.88508335     0.21300
N2767       N  0.82796580  0.29417752  0.89318925    -0.32800
C2768       C  0.81799211  0.30080356  0.89817537    -0.10400
C2769       C  0.80619384  0.29694402  0.89333502    -0.29200
N2770       N  0.80225341  0.26333012  0.86218462    -0.45800
C2771       C  0.81212078  0.25642017  0.85738323    -0.05100
C2772       C  0.82392131  0.25986846  0.86250824    -0.22400
H2773       H  0.83932117  0.27556033  0.87829267     0.19400
H2774       H  0.79092364  0.28158853  0.87732714     0.18200
H2775       H  0.79664056  0.30048938  0.89557765     0.14500
H2776       H  0.83343779  0.25620826  0.86028263     0.14300
H2777       H  0.83778291  0.29497618  0.89523884     0.32500
H2778       H  0.79246076  0.26279819  0.85996582     0.35200
C2779       C  0.85629887  0.15550021  0.81332962     0.20800
C2780       C  0.86621026  0.14881118  0.81918412    -0.39000
C2781       C  0.86959870  0.13673208  0.81435817     0.19800
C2782       C  0.86362683  0.13163862  0.80442558     0.22500
C2783       C  0.85364676  0.13836159  0.79854328    -0.39500
C2784       C  0.85022194  0.15051157  0.80340180     0.21300
N2785       N  0.85139614  0.16715973  0.81623546    -0.32800
C2786       C  0.84209658  0.16973279  0.80812172    -0.10400
C2787       C  0.84105088  0.15955907  0.79994712    -0.29200
N2788       N  0.86871479  0.11993117  0.80166799    -0.45800
C2789       C  0.87793321  0.11760866  0.80996370    -0.05100
C2790       C  0.87873596  0.12789467  0.81799392    -0.22400
H2791       H  0.87093781  0.15272896  0.82695498     0.19400
H2792       H  0.84891667  0.13443985  0.79077858     0.18200
H2793       H  0.83449764  0.15887371  0.79250753     0.14500
H2794       H  0.88515296  0.12882754  0.82550905     0.14300
H2795       H  0.85426966  0.17300133  0.82332868     0.32500
H2796       H  0.86604985  0.11389744  0.79463775     0.35200
C2797       C  0.75685106  0.25148300  0.76133790     0.20800
C2798       C  0.74835245  0.26147933  0.75792968    -0.39000
C2799       C  0.74550199  0.26214561  0.74579643     0.19800
C2800       C  0.75071693  0.25351211  0.73768189     0.22500
C2801       C  0.75918862  0.24348688  0.74109490    -0.39500
C2802       C  0.76204062  0.24281934  0.75323541     0.21300
N2803       N  0.76127983  0.24897143  0.77229109    -0.32800
C2804       C  0.76938109  0.23863966  0.77118758    -0.10400
C2805       C  0.77005227  0.23449165  0.75942189    -0.29200
N2806       N  0.74642042  0.25615322  0.72670636    -0.45800
C2807       C  0.73836100  0.26651796  0.72783107    -0.05100
C2808       C  0.73757869  0.27054962  0.73961825    -0.22400
H2809       H  0.74429286  0.26826697  0.76425683     0.19400
H2810       H  0.76328836  0.23673222  0.73476024     0.18200
H2811       H  0.77582044  0.22662762  0.75583138     0.14500
H2812       H  0.73185423  0.27844063  0.74321877     0.14300
H2813       H  0.75904482  0.25410617  0.78000845     0.32500
H2814       H  0.74870817  0.25108395  0.71896667     0.35200
C2815       C  0.53334218  0.56343658  0.86357625     0.20800
C2816       C  0.52046974  0.56170876  0.86734130    -0.39000
C2817       C  0.51853695  0.56145177  0.87967529     0.19800
C2818       C  0.52871428  0.56252102  0.88757500     0.22500
C2819       C  0.54150531  0.56438933  0.88382728    -0.39500
C2820       C  0.54338276  0.56494080  0.87155982     0.21300
N2821       N  0.53775523  0.56436103  0.85238181    -0.32800
C2822       C  0.55062853  0.56672874  0.85331903    -0.10400
C2823       C  0.55447213  0.56716727  0.86513325    -0.29200
N2824       N  0.52444613  0.56199588  0.89878177    -0.45800
C2825       C  0.51141805  0.56083922  0.89811233    -0.05100
C2826       C  0.50732262  0.56048274  0.88632733    -0.22400
H2827       H  0.51253820  0.56085001  0.86114235     0.19400
H2828       H  0.54939929  0.56554636  0.89002831     0.18200
H2829       H  0.56409982  0.56886701  0.86855738     0.14500
H2830       H  0.49751148  0.55961732  0.88308851     0.14300
H2831       H  0.53232207  0.56373766  0.84460982     0.32500
H2832       H  0.53005094  0.56271165  0.90644718     0.35200
C2833       C  0.53399156  0.43944755  0.64308491     0.20800
C2834       C  0.52116662  0.44039395  0.63899586    -0.39000
C2835       C  0.51944998  0.43885021  0.62671695     0.19800
C2836       C  0.52977119  0.43679626  0.61912233     0.22500
C2837       C  0.54252590  0.43568860  0.62321017    -0.39500
C2838       C  0.54419725  0.43697700  0.63546390     0.21300
N2839       N  0.53820165  0.44019690  0.65435198    -0.32800
C2840       C  0.55112110  0.43791516  0.65387132    -0.10400
C2841       C  0.55519417  0.43588032  0.64224390    -0.29200
N2842       N  0.52571310  0.43599405  0.60786148    -0.45800
C2843       C  0.51268247  0.43735308  0.60822471    -0.05100
C2844       C  0.50837182  0.43907367  0.61985020    -0.22400
H2845       H  0.51311967  0.44208512  0.64493813     0.19400
H2846       H  0.55055575  0.43383652  0.61728494     0.18200
H2847       H  0.56488908  0.43374095  0.63917891     0.14500
H2848       H  0.49853461  0.44061799  0.62282248     0.14300
H2849       H  0.53259086  0.44171405  0.66192445     0.32500
H2850       H  0.53147240  0.43457225  0.60036531     0.35200
C2851       C  0.64308764  0.37182621  0.70054734     0.20800
C2852       C  0.65170039  0.36353021  0.70654817    -0.39000
C2853       C  0.65524921  0.35212604  0.70045536     0.19800
C2854       C  0.65054224  0.34924403  0.68928642     0.22500
C2855       C  0.64196304  0.35749484  0.68332165    -0.39500
C2856       C  0.63845802  0.36884965  0.68937666     0.21300
N2857       N  0.63812964  0.38321941  0.70435945    -0.32800
C2858       C  0.63027417  0.38742614  0.69552589    -0.10400
C2859       C  0.63029957  0.37872610  0.68604677    -0.29200
N2860       N  0.65558102  0.33805817  0.68523411    -0.45800
C2861       C  0.66365031  0.33375461  0.69382846    -0.05100
C2862       C  0.66365343  0.34223080  0.70351241    -0.22400
H2863       H  0.65541647  0.36581364  0.71526005     0.19400
H2864       H  0.63832944  0.35526673  0.67456677     0.18200
H2865       H  0.62494628  0.37941819  0.67784299     0.14500
H2866       H  0.66927208  0.34143901  0.71155970     0.14300
H2867       H  0.63984380  0.38773774  0.71249249     0.32500
H2868       H  0.65382177  0.33378807  0.67699978     0.35200
C2869       C  0.59741465  0.49391067  0.74722449     0.20800
C2870       C  0.60510874  0.50264687  0.75371596    -0.39000
C2871       C  0.59835101  0.51185260  0.76054718     0.19800
C2872       C  0.58497125  0.51217988  0.76099618     0.22500
C2873       C  0.57729605  0.50358226  0.75438830    -0.39500
C2874       C  0.58403873  0.49451922  0.74744159     0.21300
N2875       N  0.60143967  0.48421729  0.74009104    -0.32800
C2876       C  0.59053630  0.47877076  0.73561360    -0.10400
C2877       C  0.57950614  0.48496798  0.73996062    -0.29200
N2878       N  0.58086766  0.52159809  0.76835199    -0.45800
C2879       C  0.59168993  0.52745179  0.77252181    -0.05100
C2880       C  0.60280176  0.52168367  0.76781994    -0.22400
H2881       H  0.61557002  0.50229909  0.75347104     0.19400
H2882       H  0.56683439  0.50392815  0.75463477     0.18200
H2883       H  0.56951286  0.48270170  0.73799587     0.14500
H2884       H  0.61277064  0.52420080  0.76962869     0.14300
H2885       H  0.61099476  0.48159338  0.73824781     0.32500
H2886       H  0.57127966  0.52395987  0.77034089     0.35200
C2887       C  0.69081858  0.76491850  0.87939129     0.20800
C2888       C  0.68222796  0.77107473  0.88727106    -0.39000
C2889       C  0.68781145  0.78015115  0.89505754     0.19800
C2890       C  0.70095656  0.78271897  0.89509100     0.22500
C2891       C  0.70950173  0.77664996  0.88716962    -0.39500
C2892       C  0.70390888  0.76774232  0.87928927     0.21300
N2893       N  0.68791144  0.75630426  0.87081575    -0.32800
C2894       C  0.69920949  0.75381245  0.86511385    -0.10400
C2895       C  0.70939422  0.76074599  0.87017223    -0.29200
N2896       N  0.70387196  0.79180126  0.90322024    -0.45800
C2897       C  0.69250208  0.79520737  0.90833229    -0.05100
C2898       C  0.68224023  0.78815397  0.90346923    -0.22400
H2899       H  0.67194021  0.76911961  0.88719999     0.19400
H2900       H  0.71973186  0.77888025  0.88701155     0.18200
H2901       H  0.71942665  0.76082300  0.86742813     0.14500
H2902       H  0.67208990  0.78882356  0.90574683     0.14300
H2903       H  0.67875267  0.75268715  0.86872764     0.32500
H2904       H  0.71301830  0.79564719  0.90499857     0.35200
C2905       C  0.65966507  0.65089725  0.80893517     0.20800
C2906       C  0.65702299  0.63909255  0.80309985    -0.39000
C2907       C  0.64799852  0.63089958  0.80870302     0.19800
C2908       C  0.64213373  0.63423094  0.81930246     0.22500
C2909       C  0.64477836  0.64598113  0.82512046    -0.39500
C2910       C  0.65373192  0.65415129  0.81951948     0.21300
N2911       N  0.66775931  0.66043555  0.80545723    -0.32800
C2912       C  0.66693123  0.66979077  0.81391826    -0.10400
C2913       C  0.65826892  0.66619359  0.82280759    -0.29200
N2914       N  0.63370034  0.62502191  0.82268225    -0.45800
C2915       C  0.63408340  0.61572846  0.81416655    -0.05100
C2916       C  0.64294705  0.61901707  0.80530414    -0.22400
H2917       H  0.66155268  0.63653666  0.79477359     0.19400
H2918       H  0.64011193  0.64862259  0.83336308     0.18200
H2919       H  0.65564799  0.67162492  0.83066262     0.14500
H2920       H  0.64518196  0.61360553  0.79733862     0.14300
H2921       H  0.67349675  0.66054399  0.79784152     0.32500
H2922       H  0.62785753  0.62521719  0.83022859     0.35200
C2923       C  0.80835590  0.71802102  0.61636866     0.20800
C2924       C  0.80022247  0.72380995  0.62481358    -0.39000
C2925       C  0.80591508  0.73350662  0.63183138     0.19800
C2926       C  0.81867255  0.73731687  0.63042776     0.22500
C2927       C  0.82685053  0.73142079  0.62207030    -0.39500
C2928       C  0.82120998  0.72157583  0.61517464     0.21300
N2929       N  0.80536401  0.70836170  0.60881740    -0.32800
C2930       C  0.81644851  0.70561393  0.60290478    -0.10400
C2931       C  0.82654350  0.71363787  0.60663506    -0.29200
N2932       N  0.82183076  0.74650728  0.63840088    -0.45800
C2933       C  0.81106962  0.74835185  0.64506119    -0.05100
C2934       C  0.80094379  0.74045221  0.64121155    -0.22400
H2935       H  0.79026577  0.72081443  0.62598598     0.19400
H2936       H  0.83691999  0.73412769  0.62115446     0.18200
H2937       H  0.83644807  0.71365248  0.60352330     0.14500
H2938       H  0.79133103  0.73968084  0.64495024     0.14300
H2939       H  0.79642174  0.70373379  0.60792767     0.32500
H2940       H  0.83088037  0.75084127  0.63956109     0.35200
C2941       C  0.86982789  0.86870082  0.69261236     0.20800
C2942       C  0.86569854  0.85822133  0.68563282    -0.39000
C2943       C  0.85750630  0.84928551  0.69123499     0.19800
C2944       C  0.85370333  0.85062369  0.70292323     0.22500
C2945       C  0.85786527  0.86114188  0.70994371    -0.39500
C2946       C  0.86606514  0.87015199  0.70430356     0.21300
N2947       N  0.87769426  0.87842362  0.68929714    -0.32800
C2948       C  0.87901217  0.88621351  0.69890481    -0.10400
C2949       C  0.87186551  0.88139268  0.70846613    -0.29200
N2950       N  0.84580849  0.84078818  0.70608650    -0.45800
C2951       C  0.84461198  0.83318118  0.69631346    -0.05100
C2952       C  0.85178948  0.83818607  0.68689863    -0.22400
H2953       H  0.86864648  0.85711447  0.67648808     0.19400
H2954       H  0.85491775  0.86224496  0.71908779     0.18200
H2955       H  0.87114904  0.88544972  0.71728596     0.14500
H2956       H  0.85268135  0.83427759  0.67803733     0.14300
H2957       H  0.88194457  0.87962088  0.68097483     0.32500
H2958       H  0.84149487  0.83937194  0.71435238     0.35200
C2959       C  0.76145323  0.75054866  0.74439287     0.20800
C2960       C  0.75261435  0.74088608  0.74781404    -0.39000
C2961       C  0.74825495  0.74157456  0.75955623     0.19800
C2962       C  0.75236165  0.75116993  0.76729382     0.22500
C2963       C  0.76114779  0.76089268  0.76384631    -0.39500
C2964       C  0.76554746  0.76017729  0.75210209     0.21300
N2965       N  0.76719587  0.75186399  0.73379177    -0.32800
C2966       C  0.77502392  0.76240815  0.73472760    -0.10400
C2967       C  0.77425386  0.76786566  0.74602829    -0.29200
N2968       N  0.74706150  0.74945210  0.77805404    -0.45800
C2969       C  0.73953448  0.73867575  0.77716059    -0.05100
C2970       C  0.73998936  0.73353355  0.76573209    -0.22400
H2971       H  0.74948062  0.73329943  0.74181370     0.19400
H2972       H  0.76444432  0.76835341  0.76990296     0.18200
H2973       H  0.77939214  0.77627679  0.74936696     0.14500
H2974       H  0.73509847  0.72495868  0.76242609     0.14300
H2975       H  0.76588233  0.74589838  0.72640177     0.32500
H2976       H  0.74857006  0.75520654  0.78555075     0.35200
C2977       C  0.53673675  0.93577998  0.36462194     0.20800
C2978       C  0.52378870  0.93761039  0.36807140    -0.39000
C2979       C  0.52126038  0.93628529  0.38024350     0.19800
C2980       C  0.53094751  0.93357885  0.38834089     0.22500
C2981       C  0.54381459  0.93153065  0.38487411    -0.39500
C2982       C  0.54629408  0.93265409  0.37271683     0.21300
N2983       N  0.54172975  0.93669957  0.35364066    -0.32800
C2984       C  0.55450837  0.93394605  0.35476962    -0.10400
C2985       C  0.55769097  0.93132580  0.36652519    -0.29200
N2986       N  0.52624328  0.93354315  0.39942377    -0.45800
C2987       C  0.51342970  0.93604335  0.39840233    -0.05100
C2988       C  0.50990408  0.93770654  0.38657073    -0.22400
H2989       H  0.51627082  0.93999620  0.36176846     0.19400
H2990       H  0.55137222  0.92935117  0.39119934     0.18200
H2991       H  0.56711634  0.92894633  0.37008616     0.14500
H2992       H  0.50043658  0.94013152  0.38312971     0.14300
H2993       H  0.53674132  0.93891406  0.34585769     0.32500
H2994       H  0.53144626  0.93201239  0.40722779     0.35200
C2995       C  0.53632538  0.06206562  0.14599259     0.20800
C2996       C  0.52326887  0.06068657  0.14269463    -0.39000
C2997       C  0.52090504  0.05990934  0.13044809     0.19800
C2998       C  0.53083590  0.06023009  0.12221649     0.22500
C2999       C  0.54379607  0.06181659  0.12549210    -0.39500
C3000       C  0.54612027  0.06283195  0.13765512     0.21300
N3001       N  0.54122666  0.06289093  0.15701190    -0.32800
C3002       C  0.55417978  0.06439903  0.15558651    -0.10400
C3003       C  0.55756224  0.06448980  0.14365072    -0.29200
N3004       N  0.52619298  0.05923058  0.11118129    -0.45800
C3005       C  0.51317474  0.05853226  0.11228495    -0.05100
C3006       C  0.50945659  0.05892715  0.12417922    -0.22400
H3007       H  0.51554361  0.06030807  0.14916129     0.19400
H3008       H  0.55151429  0.06228700  0.11902253     0.18200
H3009       H  0.56715172  0.06535720  0.13987838     0.14500
H3010       H  0.49973510  0.05858602  0.12773074     0.14300
H3011       H  0.53610323  0.06253466  0.16498105     0.32500
H3012       H  0.53156000  0.05939828  0.10333907     0.35200
C3013       C  0.58772977  0.00722490  0.24643778     0.20800
C3014       C  0.57983936  0.99902894  0.25331127    -0.39000
C3015       C  0.58629903  0.98917761  0.25959544     0.19800
C3016       C  0.59956481  0.98749212  0.25890040     0.22500
C3017       C  0.60745652  0.99577102  0.25213294    -0.39500
C3018       C  0.60103340  0.00575807  0.24602368     0.21300
N3019       N  0.58398135  0.01736114  0.23972508    -0.32800
C3020       C  0.59499265  0.02251136  0.23515917    -0.10400
C3021       C  0.60583551  0.01556371  0.23891653    -0.29200
N3022       N  0.60338711  0.97753143  0.26578202    -0.45800
C3023       C  0.59252589  0.97295908  0.27107364    -0.05100
C3024       C  0.58165477  0.97997079  0.26742690    -0.22400
H3025       H  0.56946270  0.00032547  0.25383850     0.19400
H3026       H  0.61785699  0.99462081  0.25177431     0.18200
H3027       H  0.61584648  0.01732914  0.23661345     0.14500
H3028       H  0.57173382  0.97862356  0.27024015     0.14300
H3029       H  0.57452860  0.02065738  0.23842466     0.32500
H3030       H  0.61286773  0.97432003  0.26709082     0.35200
C3031       C  0.70509955  0.26698076  0.12803321     0.20800
C3032       C  0.71110149  0.27667357  0.12120198    -0.39000
C3033       C  0.70364259  0.28185051  0.11196409     0.19800
C3034       C  0.69108110  0.27782962  0.10982042     0.22500
C3035       C  0.68513797  0.26798828  0.11654987    -0.39500
C3036       C  0.69267498  0.26267432  0.12569465     0.21300
N3037       N  0.71009801  0.26066719  0.13738495    -0.32800
C3038       C  0.70087107  0.25215956  0.14097610    -0.10400
C3039       C  0.68986646  0.25307249  0.13386403    -0.29200
N3040       N  0.68595912  0.28451075  0.10071981    -0.45800
C3041       C  0.69540344  0.29267059  0.09691851    -0.05100
C3042       C  0.70659314  0.29126893  0.10368615    -0.22400
H3043       H  0.72086153  0.27995181  0.12296102     0.19400
H3044       H  0.67536140  0.26474216  0.11481764     0.18200
H3045       H  0.68095214  0.24762258  0.13468892     0.14500
H3046       H  0.71559901  0.29654543  0.10276326     0.14300
H3047       H  0.71927054  0.26202379  0.14105390     0.32500
H3048       H  0.67667445  0.28346662  0.09720456     0.35200
C3049       C  0.64778200  0.12858091  0.18665537     0.20800
C3050       C  0.65100171  0.13969211  0.18004999    -0.39000
C3051       C  0.66060760  0.14768083  0.18493096     0.19800
C3052       C  0.66655619  0.14486314  0.19559929     0.22500
C3053       C  0.66331207  0.13372593  0.20223202    -0.39500
C3054       C  0.65369009  0.12569112  0.19732752     0.21300
N3055       N  0.63894448  0.11950111  0.18389733    -0.32800
C3056       C  0.63915109  0.11070030  0.19285552    -0.10400
C3057       C  0.64824711  0.11423498  0.20142343    -0.29200
N3058       N  0.67530662  0.15409988  0.19832607    -0.45800
C3059       C  0.67490300  0.16284802  0.18931693    -0.05100
C3060       C  0.66585390  0.15913629  0.18079846    -0.22400
H3061       H  0.64635233  0.14195733  0.17171517     0.19400
H3062       H  0.66791753  0.13149549  0.21059258     0.18200
H3063       H  0.65053588  0.10915353  0.20955146     0.14500
H3064       H  0.66334502  0.16418639  0.17270858     0.14300
H3065       H  0.63310031  0.11936800  0.17636114     0.32500
H3066       H  0.68111783  0.15445900  0.20587754     0.35200
C3067       C  0.81027126  0.23090890  0.37228273     0.20800
C3068       C  0.80350351  0.22190789  0.37933413    -0.39000
C3069       C  0.81074787  0.21580581  0.38827607     0.19800
C3070       C  0.82376160  0.21838329  0.38994556     0.22500
C3071       C  0.83046560  0.22751518  0.38301767    -0.39500
C3072       C  0.82320209  0.23370277  0.37416630     0.21300
N3073       N  0.80574864  0.23760387  0.36292389    -0.32800
C3074       C  0.81584392  0.24478649  0.35887395    -0.10400
C3075       C  0.82687556  0.24267714  0.36571978    -0.29200
N3076       N  0.82863315  0.21084736  0.39858626    -0.45800
C3077       C  0.81864763  0.20349332  0.40256124    -0.05100
C3078       C  0.80728721  0.20637359  0.39640844    -0.22400
H3079       H  0.79340409  0.21967052  0.37784662     0.19400
H3080       H  0.84065229  0.22949175  0.38429448     0.18200
H3081       H  0.83640083  0.24682039  0.36445386     0.14500
H3082       H  0.79788797  0.20188637  0.39748868     0.14300
H3083       H  0.79639969  0.23720954  0.35944547     0.32500
H3084       H  0.83819745  0.21067218  0.40155701     0.35200
C3085       C  0.76371441  0.24839902  0.26097967     0.20800
C3086       C  0.75578881  0.23805134  0.25734738    -0.39000
C3087       C  0.75117878  0.23877305  0.24569311     0.19800
C3088       C  0.75423809  0.24902137  0.23823834     0.22500
C3089       C  0.76219465  0.25935957  0.24186033    -0.39500
C3090       C  0.76681969  0.25862801  0.25351660     0.21300
N3091       N  0.76933412  0.24995192  0.27159853    -0.32800
C3092       C  0.77612450  0.26122271  0.27090188    -0.10400
C3093       C  0.77479930  0.26692153  0.25974560    -0.29200
N3094       N  0.74868893  0.24739512  0.22759311    -0.45800
C3095       C  0.74205129  0.23602027  0.22825745    -0.05100
C3096       C  0.74336460  0.23036343  0.23942628    -0.22400
H3097       H  0.75340154  0.23002375  0.26316510     0.19400
H3098       H  0.76463626  0.26735337  0.23602210     0.18200
H3099       H  0.77911193  0.27588297  0.25660349     0.14500
H3100       H  0.73921220  0.22131262  0.24253450     0.14300
H3101       H  0.76867756  0.24363772  0.27882539     0.32500
H3102       H  0.74942214  0.25364713  0.22032884     0.35200
C3103       C  0.97742882  0.56955199  0.14312663     0.20800
C3104       C  0.98656831  0.57565473  0.13577651    -0.39000
C3105       C  0.99180399  0.56787526  0.12674149     0.19800
C3106       C  0.98814628  0.55503361  0.12510927     0.22500
C3107       C  0.97910296  0.54889685  0.13252633    -0.39500
C3108       C  0.97393789  0.55664507  0.14161255     0.21300
N3109       N  0.97091784  0.57486948  0.15223705    -0.32800
C3110       C  0.96330337  0.56525259  0.15662674    -0.10400
C3111       C  0.96496367  0.55372292  0.15025511    -0.29200
N3112       N  0.99438734  0.54980532  0.11580820    -0.45800
C3113       C  0.00215677  0.55934938  0.11152499    -0.05100
C3114       C  0.00082487  0.57076575  0.11813092    -0.22400
H3115       H  0.98935885  0.58572828  0.13697642     0.19400
H3116       H  0.97627452  0.53883864  0.13129633     0.18200
H3117       H  0.96012320  0.54450478  0.15164945     0.14500
H3118       H  0.00572576  0.57995917  0.11677992     0.14300
H3119       H  0.97165563  0.58443779  0.15530426     0.32500
H3120       H  0.99347158  0.54029429  0.11263742     0.35200
C3121       C  0.96417881  0.43423237  0.37439743     0.20800
C3122       C  0.96462193  0.43269877  0.38671334    -0.39000
C3123       C  0.97672262  0.43473452  0.39193986     0.19800
C3124       C  0.98763858  0.43778882  0.38538761     0.22500
C3125       C  0.98714581  0.43956863  0.37306322    -0.39500
C3126       C  0.97494914  0.43778984  0.36784901     0.21300
N3127       N  0.95384533  0.43269508  0.36736464    -0.32800
C3128       C  0.95797642  0.43553519  0.35628701    -0.10400
C3129       C  0.97106368  0.43883840  0.35620379    -0.29200
N3130       N  0.99801234  0.43893592  0.39248228    -0.45800
C3131       C  0.99354702  0.43686372  0.40361367    -0.05100
C3132       C  0.98033372  0.43425678  0.40364095    -0.22400
H3133       H  0.95615387  0.43013706  0.39185320     0.19400
H3134       H  0.99560575  0.44217208  0.36792981     0.18200
H3135       H  0.97696787  0.44136963  0.34862644     0.14500
H3136       H  0.97422597  0.43220325  0.41120330     0.14300
H3137       H  0.94451637  0.42999824  0.36994679     0.32500
H3138       H  0.00745708  0.44126318  0.38996119     0.35200
C3139       C  0.87332582  0.36548801  0.30116142     0.20800
C3140       C  0.86419185  0.35800349  0.29489084    -0.39000
C3141       C  0.85979907  0.34666432  0.30065749     0.19800
C3142       C  0.86421248  0.34312990  0.31177096     0.22500
C3143       C  0.87326753  0.35057924  0.31800265    -0.39500
C3144       C  0.87761540  0.36184229  0.31227999     0.21300
N3145       N  0.87894801  0.37675042  0.29779330    -0.32800
C3146       C  0.88679944  0.38024652  0.30689634    -0.10400
C3147       C  0.88621159  0.37114415  0.31604326    -0.29200
N3148       N  0.85867737  0.33200918  0.31538523    -0.45800
C3149       C  0.85062268  0.32831158  0.30655577    -0.05100
C3150       C  0.85102076  0.33723199  0.29718880    -0.22400
H3151       H  0.86074638  0.36080615  0.28620914     0.19400
H3152       H  0.87666324  0.34781560  0.32671255     0.18200
H3153       H  0.89130717  0.37132719  0.32440545     0.14500
H3154       H  0.84566289  0.33685433  0.28896884     0.14300
H3155       H  0.87742737  0.38179725  0.28988622     0.32500
H3156       H  0.86031692  0.32724919  0.32341736     0.35200
C3157       C  0.91909584  0.50594757  0.24352368     0.20800
C3158       C  0.91793311  0.49238422  0.24478302    -0.39000
C3159       C  0.91927616  0.48755656  0.25634557     0.19800
C3160       C  0.92183364  0.49560894  0.26588906     0.22500
C3161       C  0.92276575  0.50920449  0.26466512    -0.39500
C3162       C  0.92118201  0.51405894  0.25312433     0.21300
N3163       N  0.91849698  0.51287450  0.23343459    -0.32800
C3164       C  0.91997165  0.52551645  0.23662915    -0.10400
C3165       C  0.92159584  0.52666629  0.24885611    -0.29200
N3166       N  0.92320308  0.48857840  0.27585898    -0.45800
C3167       C  0.92129141  0.47598279  0.27267844    -0.05100
C3168       C  0.91874247  0.47495870  0.26058784    -0.22400
H3169       H  0.91618797  0.48604747  0.23729515     0.19400
H3170       H  0.92465275  0.51552689  0.27213493     0.18200
H3171       H  0.92321187  0.53549069  0.25388233     0.14500
H3172       H  0.91701829  0.46616378  0.25554958     0.14300
H3173       H  0.91712168  0.50923602  0.22489051     0.32500
H3174       H  0.92522078  0.49213562  0.28432259     0.35200
C3175       C  0.69028003  0.73390835  0.37688664     0.20800
C3176       C  0.68179804  0.72900408  0.38552287    -0.39000
C3177       C  0.68699166  0.71949162  0.39307840     0.19800
C3178       C  0.69971121  0.71536065  0.39221147     0.22500
C3179       C  0.70813893  0.72016816  0.38351767    -0.39500
C3180       C  0.70289636  0.72951891  0.37585874     0.21300
N3181       N  0.68765327  0.74279683  0.36848267    -0.32800
C3182       C  0.69862650  0.74392527  0.36197473    -0.10400
C3183       C  0.70833815  0.73578870  0.36630271    -0.29200
N3184       N  0.70229871  0.70622224  0.40037651    -0.45800
C3185       C  0.69110160  0.70435994  0.40637217    -0.05100
C3186       C  0.68131483  0.71244922  0.40208303    -0.22400
H3187       H  0.67185338  0.73222455  0.38620444     0.19400
H3188       H  0.71800667  0.71675719  0.38268462     0.18200
H3189       H  0.71805805  0.73459878  0.36290220     0.14500
H3190       H  0.67140211  0.71307126  0.40512523     0.14300
H3191       H  0.67886357  0.74758371  0.36710878     0.32500
H3192       H  0.71106255  0.70134108  0.40161389     0.35200
C3193       C  0.65653983  0.84669027  0.31779715     0.20800
C3194       C  0.64711201  0.85402055  0.32374565    -0.39000
C3195       C  0.64370942  0.86587496  0.31844195     0.19800
C3196       C  0.64922864  0.87014834  0.30797506     0.22500
C3197       C  0.65872961  0.86280201  0.30201340    -0.39500
C3198       C  0.66216470  0.85089396  0.30735020     0.21300
N3199       N  0.66135469  0.83509276  0.32107717    -0.32800
C3200       C  0.67016249  0.83178368  0.31270130    -0.10400
C3201       C  0.67094799  0.84141541  0.30396230    -0.29200
N3202       N  0.64414724  0.88171285  0.30474243    -0.45800
C3203       C  0.63536524  0.88479802  0.31325101    -0.05100
C3204       C  0.63487046  0.87513721  0.32193385    -0.22400
H3205       H  0.64271979  0.85071490  0.33191458     0.19400
H3206       H  0.66308522  0.86608570  0.29382222     0.18200
H3207       H  0.67710196  0.84148758  0.29620569     0.14500
H3208       H  0.62877450  0.87484309  0.32972331     0.14300
H3209       H  0.65877836  0.82977813  0.32860271     0.32500
H3210       H  0.64648945  0.88713847  0.29721741     0.35200
C3211       C  0.81755578  0.78619877  0.11513420     0.20800
C3212       C  0.81020359  0.78224045  0.12493532    -0.39000
C3213       C  0.81614026  0.77317799  0.13246288     0.19800
C3214       C  0.82841966  0.76832200  0.13034667     0.22500
C3215       C  0.83584286  0.77239223  0.12059779    -0.39500
C3216       C  0.82994551  0.78156837  0.11311943     0.21300
N3217       N  0.81413921  0.79484506  0.10677766    -0.32800
C3218       C  0.82448462  0.79589263  0.09947052    -0.10400
C3219       C  0.83454929  0.78776426  0.10313065    -0.29200
N3220       N  0.83179376  0.75971112  0.13877794    -0.45800
C3221       C  0.82161848  0.75916732  0.14635504    -0.05100
C3222       C  0.81169468  0.76746867  0.14271671    -0.22400
H3223       H  0.80058322  0.78598405  0.12660465     0.19400
H3224       H  0.84551519  0.76875023  0.11899743     0.18200
H3225       H  0.84397361  0.78661362  0.09907994     0.14500
H3226       H  0.80242904  0.76904980  0.14694759     0.14300
H3227       H  0.80542287  0.79996378  0.10625545     0.32500
H3228       H  0.84051163  0.75461021  0.13938226     0.35200
C3229       C  0.86590096  0.65857382  0.20664967     0.20800
C3230       C  0.86890544  0.64734643  0.21327452    -0.39000
C3231       C  0.87942440  0.63992090  0.20911707     0.19800
C3232       C  0.88638179  0.64347372  0.19915574     0.22500
C3233       C  0.88335549  0.65462948  0.19253254    -0.39500
C3234       C  0.87286176  0.66200306  0.19665676     0.21300
N3235       N  0.85637353  0.66725658  0.20868013    -0.32800
C3236       C  0.85727107  0.67624200  0.19988318    -0.10400
C3237       C  0.86744630  0.67325355  0.19222037    -0.29200
N3238       N  0.89581612  0.63481897  0.19692456    -0.45800
C3239       C  0.89491177  0.62557334  0.20546513    -0.05100
C3240       C  0.88478569  0.62843361  0.21327355    -0.22400
H3241       H  0.86343467  0.64457466  0.22105191     0.19400
H3242       H  0.88875768  0.65734371  0.18469735     0.18200
H3243       H  0.87050331  0.67859474  0.18444602     0.14500
H3244       H  0.88167216  0.62280950  0.22086244     0.14300
H3245       H  0.84965138  0.66703477  0.21558566     0.32500
H3246       H  0.90235925  0.63513303  0.18988044     0.35200
C3247       C  0.75585363  0.75114585  0.26561528     0.20800
C3248       C  0.76563549  0.74233709  0.26244726    -0.39000
C3249       C  0.76995183  0.74311427  0.25070219     0.19800
C3250       C  0.76490643  0.75197865  0.24270868     0.22500
C3251       C  0.75509869  0.76079750  0.24587530    -0.39500
C3252       C  0.75079868  0.76004108  0.25765188     0.21300
N3253       N  0.75027031  0.75246474  0.27628661    -0.32800
C3254       C  0.74162667  0.76232176  0.27516111    -0.10400
C3255       C  0.74165681  0.76728694  0.26364892    -0.29200
N3256       N  0.77077358  0.75082510  0.23213125    -0.45800
C3257       C  0.77960764  0.74114238  0.23341447    -0.05100
C3258       C  0.77936309  0.73609830  0.24487848    -0.22400
H3259       H  0.76964419  0.73543364  0.26869219     0.19400
H3260       H  0.75118670  0.76779402  0.23966383     0.18200
H3261       H  0.73584370  0.77516614  0.26015537     0.14500
H3262       H  0.78531681  0.72839845  0.24849895     0.14300
H3263       H  0.75234106  0.74706848  0.28389088     0.32500
H3264       H  0.76889233  0.75631539  0.22454164     0.35200
loop_ 
_geom_bond_atom_site_label_1 
_geom_bond_atom_site_label_2 
_geom_bond_distance 
_geom_bond_site_symmetry_2 
_ccdc_geom_bond_type 
N1            N2   1.322       .  A
N1            C5   1.348       .  A
N1           Cu9   2.087       .  S
N2            C3   1.344       .  A
N2           Cu8   2.067       .  S
C3            C4   1.382       .  A
C3            H6   1.082       .  S
C4            C5   1.387       .  A
C4         C3221   1.476       .  S
C5            H7   1.082       .  S
Cu8          N11   2.067       .  S
Cu9          N19   2.088       .  S
Cu10         N12   2.084       .  S
Cu10         N18   2.085       .  S
N11          N12   1.322       .  A
N11          C15   1.345       .  A
N12          C13   1.346       .  A
C13          C14   1.386       .  A
C13          H16   1.082       .  S
C14          C15   1.382       .  A
C14        C3257   1.475       .  S
C15          H17   1.082       .  S
N18          N19   1.324       .  A
N18          C22   1.349       .  A
N19          C20   1.346       .  A
C20          C21   1.386       .  A
C20          H23   1.082       .  S
C21          C22   1.386       .  A
C21        C3236   1.481       .  S
C22          H24   1.082       .  S
N25          N26   1.322       .  A
N25          C29   1.347       .  A
N25         Cu33   2.080       .  S
N26          C27   1.344       .  A
N26         Cu32   2.071       .  S
C27          C28   1.383       .  A
C27          H30   1.082       .  S
C28          C29   1.384       .  A
C28        C3182   1.473       .  S
C29          H31   1.082       .  S
Cu32         N35   2.072       .  S
Cu33         N43   2.081       .  S
Cu34         N36   2.083       .  S
Cu34         N42   2.084       .  S
N35          N36   1.323       .  A
N35          C39   1.344       .  A
N36          C37   1.347       .  A
C37          C38   1.385       .  A
C37          H40   1.082       .  S
C38          C39   1.383       .  A
C38        C3254   1.475       .  S
C39          H41   1.082       .  S
N42          N43   1.323       .  A
N42          C46   1.349       .  A
N43          C44   1.345       .  A
C44          C45   1.385       .  A
C44          H47   1.081       .  S
C45          C46   1.387       .  A
C45        C3200   1.480       .  S
C46          H48   1.082       .  S
N49          N50   1.322       .  A
N49          C53   1.351       .  A
N49         Cu57   2.093       .  S
N50          C51   1.341       .  A
N50         Cu56   2.069       .  S
C51          C52   1.382       .  A
C51          H54   1.082       .  S
C52          C53   1.388       .  A
C52        C3146   1.479       .  S
C53          H55   1.082       .  S
Cu56         N59   2.068       .  S
Cu57         N67   2.094       .  S
Cu58         N60   2.071       .  S
Cu58         N66   2.073       .  S
N59          N60   1.321       .  A
N59          C63   1.344       .  A
N60          C61   1.346       .  A
C61          C62   1.383       .  A
C61          H64   1.082       .  S
C62          C63   1.381       .  A
C62        C3128   1.467       .  S
C63          H65   1.082       .  S
N66          N67   1.324       .  A
N66          C70   1.345       .  A
N67          C68   1.348       .  A
C68          C69   1.386       .  A
C68          H71   1.082       .  S
C69          C70   1.381       .  A
C69        C3167   1.475       .  S
C70          H72   1.082       .  S
N73          N74   1.323       .  A
N73          C77   1.350       .  A
N73         Cu81   2.093       .  S
N74          C75   1.344       .  A
N74         Cu80   2.078       .  S
C75          C76   1.384       .  A
C75          H78   1.081       .  S
C76          C77   1.389       .  A
C76        C3239   1.482       .  S
C77          H79   1.082       .  S
Cu80         N83   2.077       .  S
Cu81         N91   2.093       .  S
Cu82         N84   2.081       .  S
Cu82         N90   2.082       .  S
N83          N84   1.322       .  A
N83          C87   1.346       .  A
N84          C85   1.346       .  A
C85          C86   1.385       .  A
C85          H88   1.082       .  S
C86          C87   1.384       .  A
C86        C3110   1.476       .  S
C87          H89   1.082       .  S
N90          N91   1.324       .  A
N90          C94   1.346       .  A
N91          C92   1.349       .  A
C92          C93   1.386       .  A
C92          H95   1.082       .  S
C93          C94   1.382       .  A
C93        C3164   1.476       .  S
C94          H96   1.082       .  S
N97          N98   1.322       .  A
N97         C101   1.347       .  A
N97        Cu105   2.083       .  S
N98          C99   1.345       .  A
N98        Cu104   2.073       .  S
C99         C100   1.383       .  A
C99         H102   1.082       .  S
C100        C101   1.386       .  A
C100       C3074   1.477       .  S
C101        H103   1.082       .  S
Cu104       N107   2.073       .  S
Cu105       N115   2.084       .  S
Cu106       N108   2.079       .  S
Cu106       N114   2.079       .  S
N107        N108   1.322       .  A
N107        C111   1.344       .  A
N108        C109   1.346       .  A
C109        C110   1.385       .  A
C109        H112   1.082       .  S
C110        C111   1.383       .  A
C110       C3092   1.474       .  S
C111        H113   1.082       .  S
N114        N115   1.323       .  A
N114        C118   1.348       .  A
N115        C116   1.344       .  A
C116        C117   1.384       .  A
C116        H119   1.081       .  S
C117        C118   1.385       .  A
C117       C3149   1.478       .  S
C118        H120   1.082       .  S
N121        N122   1.321       .  A
N121        C125   1.347       .  A
N121       Cu129   2.078       .  S
N122        C123   1.344       .  A
N122       Cu128   2.069       .  S
C123        C124   1.383       .  A
C123        H126   1.082       .  S
C124        C125   1.386       .  A
C124       C3038   1.475       .  S
C125        H127   1.082       .  S
Cu128       N131   2.069       .  S
Cu129       N139   2.078       .  S
Cu130       N132   2.087       .  S
Cu130       N138   2.087       .  S
N131        N132   1.323       .  A
N131        C135   1.344       .  A
N132        C133   1.347       .  A
C133        C134   1.386       .  A
C133        H136   1.082       .  S
C134        C135   1.381       .  A
C134       C3095   1.475       .  S
C135        H137   1.082       .  S
N138        N139   1.323       .  A
N138        C142   1.349       .  A
N139        C140   1.344       .  A
C140        C141   1.383       .  A
C140        H143   1.082       .  S
C141        C142   1.387       .  A
C141       C3059   1.479       .  S
C142        H144   1.082       .  S
N145        N146   1.322       .  A
N145        C149   1.350       .  A
N145       Cu153   2.093       .  S
N146        C147   1.343       .  A
N146       Cu152   2.072       .  S
C147        C148   1.382       .  A
C147        H150   1.081       .  S
C148        C149   1.389       .  A
C148       C3056   1.480       .  S
C149        H151   1.082       .  S
Cu152       N155   2.072       .  S
Cu153       N163   2.094       .  S
Cu154       N156   2.075       .  S
Cu154       N162   2.076       .  S
N155        N156   1.321       .  A
N155        C159   1.344       .  A
N156        C157   1.348       .  A
C157        C158   1.384       .  A
C157        H160   1.082       .  S
C158        C159   1.383       .  A
C158       C3002   1.472       .  S
C159        H161   1.082       .  S
N162        N163   1.325       .  A
N162        C166   1.345       .  A
N163        C164   1.349       .  A
C164        C165   1.386       .  A
C164        H167   1.082       .  S
C165        C166   1.380       .  A
C165       C3020   1.475       .  S
C166        H168   1.082       .  S
N169        N170   1.322       .  A
N169        C173   1.350       .  A
N169       Cu177   2.089       .  S
N170        C171   1.344       .  A
N170       Cu176   2.075       .  S
C171        C172   1.384       .  A
C171        H174   1.082       .  S
C172        C173   1.388       .  A
C172       C3203   1.481       .  S
C173        H175   1.082       .  S
Cu176       N179   2.074       .  S
Cu177       N187   2.090       .  S
Cu178       N180   2.080       .  S
Cu178       N186   2.081       .  S
N179        N180   1.322       .  A
N179        C183   1.344       .  A
N180        C181   1.348       .  A
C181        C182   1.385       .  A
C181        H184   1.082       .  S
C182        C183   1.383       .  A
C182       C2984   1.474       .  S
C183        H185   1.082       .  S
N186        N187   1.325       .  A
N186        C190   1.346       .  A
N187        C188   1.347       .  A
C188        C189   1.384       .  A
C188        H191   1.082       .  S
C189        C190   1.383       .  A
C189       C3023   1.476       .  S
C190        H192   1.082       .  S
N193        N194   1.322       .  A
N193        C197   1.347       .  A
N193       Cu201   2.083       .  S
N194        C195   1.344       .  A
N194       Cu200   2.068       .  S
C195        C196   1.382       .  A
C195        H198   1.082       .  S
C196        C197   1.386       .  A
C196       C2966   1.475       .  S
C197        H199   1.082       .  S
Cu200       N203   2.067       .  S
Cu201       N211   2.083       .  S
Cu202       N204   2.075       .  S
Cu202       N210   2.076       .  S
N203        N204   1.321       .  A
N203        C207   1.343       .  A
N204        C205   1.347       .  A
C205        C206   1.385       .  A
C205        H208   1.082       .  S
C206        C207   1.381       .  A
C206       C2933   1.471       .  S
C207        H209   1.082       .  S
N210        N211   1.323       .  A
N210        C214   1.343       .  A
N211        C212   1.348       .  A
C212        C213   1.385       .  A
C212        H215   1.082       .  S
C213        C214   1.383       .  A
C213       C2951   1.476       .  S
C214        H216   1.082       .  S
N217        N218   1.324       .  A
N217        C221   1.346       .  A
N217       Cu225   2.080       .  S
N218        C219   1.346       .  A
N218       Cu224   2.079       .  S
C219        C220   1.383       .  A
C219        H222   1.082       .  S
C220        C221   1.384       .  A
C220       C2969   1.475       .  S
C221        H223   1.082       .  S
Cu224       N227   2.079       .  S
Cu225       N235   2.080       .  S
Cu226       N228   2.071       .  S
Cu226       N234   2.071       .  S
N227        N228   1.321       .  A
N227        C231   1.345       .  A
N228        C229   1.346       .  A
C229        C230   1.383       .  A
C229        H232   1.082       .  S
C230        C231   1.385       .  A
C230       C2894   1.475       .  S
C231        H233   1.082       .  S
N234        N235   1.322       .  A
N234        C238   1.342       .  A
N235        C236   1.349       .  A
C236        C237   1.386       .  A
C236        H239   1.082       .  S
C237        C238   1.382       .  A
C237       C2912   1.475       .  S
C238        H240   1.082       .  S
N241        N242   1.321       .  A
N241        C245   1.351       .  A
N241       Cu249   2.086       .  S
N242        C243   1.339       .  A
N242       Cu248   2.060       .  S
C243        C244   1.380       .  A
C243        H246   1.081       .  S
C244        C245   1.389       .  A
C244       C2858   1.475       .  S
C245        H247   1.082       .  S
Cu248       N251   2.061       .  S
Cu249       N259   2.088       .  S
Cu250       N252   2.086       .  S
Cu250       N258   2.088       .  S
N251        N252   1.320       .  A
N251        C255   1.342       .  A
N252        C253   1.350       .  A
C253        C254   1.388       .  A
C253        H256   1.082       .  S
C254        C255   1.381       .  A
C254       C2840   1.475       .  S
C255        H257   1.082       .  S
N258        N259   1.326       .  A
N258        C262   1.345       .  A
N259        C260   1.348       .  A
C260        C261   1.384       .  A
C260        H263   1.082       .  S
C261        C262   1.382       .  A
C261       C2876   1.475       .  S
C262        H264   1.082       .  S
N265        N266   1.322       .  A
N265        C269   1.348       .  A
N265       Cu273   2.081       .  S
N266        C267   1.344       .  A
N266       Cu272   2.073       .  S
C267        C268   1.383       .  A
C267        H270   1.081       .  S
C268        C269   1.386       .  A
C268       C2915   1.477       .  S
C269        H271   1.082       .  S
Cu272       N275   2.073       .  S
Cu273       N283   2.082       .  S
Cu274       N276   2.080       .  S
Cu274       N282   2.081       .  S
N275        N276   1.322       .  A
N275        C279   1.344       .  A
N276        C277   1.348       .  A
C277        C278   1.384       .  A
C277        H280   1.082       .  S
C278        C279   1.383       .  A
C278       C2822   1.473       .  S
C279        H281   1.082       .  S
N282        N283   1.324       .  A
N282        C286   1.345       .  A
N283        C284   1.347       .  A
C284        C285   1.384       .  A
C284        H287   1.082       .  S
C285        C286   1.383       .  A
C285       C2879   1.474       .  S
C286        H288   1.082       .  S
N289        N290   1.322       .  A
N289        C293   1.347       .  A
N289       Cu297   2.071       .  S
N290        C291   1.345       .  A
N290       Cu296   2.081       .  S
C291        C292   1.384       .  A
C291        H294   1.082       .  S
C292        C293   1.384       .  A
C292       C2771   1.474       .  S
C293        H295   1.082       .  S
Cu296       N299   2.082       .  S
Cu297       N307   2.072       .  S
Cu298       N300   2.084       .  S
Cu298       N306   2.084       .  S
N299        N300   1.323       .  A
N299        C303   1.346       .  A
N300        C301   1.347       .  A
C301        C302   1.386       .  A
C301        H304   1.082       .  S
C302        C303   1.385       .  A
C302       C2804   1.479       .  S
C303        H305   1.082       .  S
N306        N307   1.323       .  A
N306        C310   1.349       .  A
N307        C308   1.342       .  A
C308        C309   1.382       .  A
C308        H311   1.081       .  S
C309        C310   1.386       .  A
C309       C2786   1.476       .  S
C310        H312   1.082       .  S
N313        N314   1.322       .  A
N313        C317   1.347       .  A
N313       Cu321   2.076       .  S
N314        C315   1.345       .  A
N314       Cu320   2.077       .  S
C315        C316   1.382       .  A
C315        H318   1.082       .  S
C316        C317   1.384       .  A
C316       C2750   1.473       .  S
C317        H319   1.082       .  S
Cu320       N323   2.077       .  S
Cu321       N331   2.076       .  S
Cu322       N324   2.077       .  S
Cu322       N330   2.077       .  S
N323        N324   1.322       .  A
N323        C327   1.346       .  A
N324        C325   1.346       .  A
C325        C326   1.385       .  A
C325        H328   1.082       .  S
C326        C327   1.385       .  A
C326       C2807   1.478       .  S
C327        H329   1.082       .  S
N330        N331   1.323       .  A
N330        C334   1.346       .  A
N331        C332   1.344       .  A
C332        C333   1.384       .  A
C332        H335   1.082       .  S
C333        C334   1.383       .  A
C333       C2861   1.474       .  S
C334        H336   1.082       .  S
N337        N338   1.321       .  A
N337        C341   1.351       .  A
N337       Cu345   2.095       .  S
N338        C339   1.340       .  A
N338       Cu344   2.058       .  S
C339        C340   1.381       .  A
C339        H342   1.082       .  S
C340        C341   1.389       .  A
C340       C2789   1.478       .  S
C341        H343   1.082       .  S
Cu344       N347   2.057       .  S
Cu345       N355   2.097       .  S
Cu346       N348   2.076       .  S
Cu346       N354   2.079       .  S
N347        N348   1.321       .  A
N347        C351   1.342       .  A
N348        C349   1.346       .  A
C349        C350   1.383       .  A
C349        H352   1.082       .  S
C350        C351   1.379       .  A
C350       C2714   1.464       .  S
C351        H353   1.082       .  S
N354        N355   1.324       .  A
N354        C358   1.347       .  A
N355        C356   1.348       .  A
C356        C357   1.387       .  A
C356        H359   1.082       .  S
C357        C358   1.383       .  A
C357       C2735   1.479       .  S
C358        H360   1.082       .  S
N361        N362   1.322       .  A
N361        C365   1.349       .  A
N361       Cu369   2.087       .  S
N362        C363   1.343       .  A
N362       Cu368   2.073       .  S
C363        C364   1.382       .  A
C363        H366   1.082       .  S
C364        C365   1.387       .  A
C364       C2948   1.477       .  S
C365        H367   1.082       .  S
Cu368       N371   2.073       .  S
Cu369       N379   2.089       .  S
Cu370       N372   2.084       .  S
Cu370       N378   2.085       .  S
N371        N372   1.322       .  A
N371        C375   1.345       .  A
N372        C373   1.348       .  A
C373        C374   1.384       .  A
C373        H376   1.082       .  S
C374        C375   1.382       .  A
C374       C2696   1.473       .  S
C375        H377   1.082       .  S
N378        N379   1.324       .  A
N378        C382   1.347       .  A
N379        C380   1.348       .  A
C380        C381   1.385       .  A
C380        H383   1.082       .  S
C381        C382   1.384       .  A
C381       C2732   1.478       .  S
C382        H384   1.082       .  S
N385        N386   1.322       .  A
N385        C389   1.349       .  A
N385       Cu393   2.095       .  S
N386        C387   1.344       .  A
N386       Cu392   2.067       .  S
C387        C388   1.382       .  A
C387        H390   1.082       .  S
C388        C389   1.388       .  A
C388       C2660   1.478       .  S
C389        H391   1.082       .  S
Cu392       N395   2.066       .  S
Cu393       N403   2.095       .  S
Cu394       N396   2.085       .  S
Cu394       N402   2.086       .  S
N395        N396   1.322       .  A
N395        C399   1.343       .  A
N396        C397   1.348       .  A
C397        C398   1.386       .  A
C397        H400   1.082       .  S
C398        C399   1.381       .  A
C398       C2642   1.473       .  S
C399        H401   1.082       .  S
N402        N403   1.324       .  A
N402        C406   1.347       .  A
N403        C404   1.349       .  A
C404        C405   1.386       .  A
C404        H407   1.082       .  S
C405        C406   1.383       .  A
C405       C2678   1.478       .  S
C406        H408   1.082       .  S
N409        N410   1.322       .  A
N409        C413   1.348       .  A
N409       Cu417   2.085       .  S
N410        C411   1.343       .  A
N410       Cu416   2.068       .  S
C411        C412   1.382       .  A
C411        H414   1.082       .  S
C412        C413   1.386       .  A
C412       C2627   1.475       .  S
C413        H415   1.082       .  S
Cu416       N419   2.068       .  S
Cu417       N427   2.087       .  S
Cu418       N420   2.081       .  S
Cu418       N426   2.082       .  S
N419        N420   1.322       .  A
N419        C423   1.345       .  A
N420        C421   1.346       .  A
C421        C422   1.385       .  A
C421        H424   1.082       .  S
C422        C423   1.382       .  A
C422       C2609   1.473       .  S
C423        H425   1.082       .  S
N426        N427   1.323       .  A
N426        C430   1.346       .  A
N427        C428   1.348       .  A
C428        C429   1.386       .  A
C428        H431   1.082       .  S
C429        C430   1.384       .  A
C429       C2681   1.478       .  S
C430        H432   1.082       .  S
N433        N434   1.322       .  A
N433        C437   1.345       .  A
N433       Cu441   2.069       .  S
N434        C435   1.348       .  A
N434       Cu440   2.087       .  S
C435        C436   1.386       .  A
C435        H438   1.082       .  S
C436        C437   1.383       .  A
C436       C2552   1.475       .  S
C437        H439   1.082       .  S
Cu440       N443   2.088       .  S
Cu441       N451   2.069       .  S
Cu442       N444   2.088       .  S
Cu442       N450   2.086       .  S
N443        N444   1.323       .  A
N443        C447   1.346       .  A
N444        C445   1.349       .  A
C445        C446   1.387       .  A
C445        H448   1.082       .  S
C446        C447   1.385       .  A
C446       C2588   1.482       .  S
C447        H449   1.082       .  S
N450        N451   1.323       .  A
N450        C454   1.348       .  A
N451        C452   1.343       .  A
C452        C453   1.382       .  A
C452        H455   1.082       .  S
C453        C454   1.385       .  A
C453       C2573   1.474       .  S
C454        H456   1.082       .  S
N457        N458   1.322       .  A
N457        C461   1.350       .  A
N457       Cu465   2.095       .  S
N458        C459   1.345       .  A
N458       Cu464   2.074       .  S
C459        C460   1.384       .  A
C459        H462   1.082       .  S
C460        C461   1.389       .  A
C460       C2591   1.482       .  S
C461        H463   1.082       .  S
Cu464       N467   2.072       .  S
Cu465       N475   2.096       .  S
Cu466       N468   2.087       .  S
Cu466       N474   2.087       .  S
N467        N468   1.322       .  A
N467        C471   1.343       .  A
N468        C469   1.350       .  A
C469        C470   1.387       .  A
C469        H472   1.082       .  S
C470        C471   1.381       .  A
C470       C2843   1.475       .  S
C471        H473   1.082       .  S
N474        N475   1.325       .  A
N474        C478   1.345       .  A
N475        C476   1.350       .  A
C476        C477   1.387       .  A
C476        H479   1.082       .  S
C477        C478   1.384       .  A
C477       C2663   1.482       .  S
C478        H480   1.082       .  S
N481        N482   1.322       .  A
N481        C485   1.347       .  A
N481       Cu489   2.087       .  S
N482        C483   1.343       .  A
N482       Cu488   2.062       .  S
C483        C484   1.380       .  A
C483        H486   1.082       .  S
C484        C485   1.386       .  A
C484       C2534   1.472       .  S
C485        H487   1.082       .  S
Cu488       N491   2.062       .  S
Cu489       N499   2.088       .  S
Cu490       N492   2.082       .  S
Cu490       N498   2.083       .  S
N491        N492   1.321       .  A
N491        C495   1.343       .  A
N492        C493   1.347       .  A
C493        C494   1.385       .  A
C493        H496   1.082       .  S
C494        C495   1.381       .  A
C494       C2498   1.472   1_655  S
C495        H497   1.082   1_655  S
N498        N499   1.323       .  A
N498        C502   1.345       .  A
N499        C500   1.349       .  A
C500        C501   1.386       .  A
C500        H503   1.082       .  S
C501        C502   1.385       .  A
C501       C2516   1.480       .  S
C502        H504   1.082       .  S
N505        N506   1.322       .  A
N505        C509   1.348       .  A
N505       Cu513   2.081       .  S
N506        C507   1.342       .  A
N506       Cu512   2.066       .  S
C507        C508   1.381       .  A
C507        H510   1.082   1_455  S
C508        C509   1.386       .  A
C508       C2537   1.473       .  S
C509        H511   1.082       .  S
Cu512       N515   2.066       .  S
Cu513       N523   2.082       .  S
Cu514       N516   2.067       .  S
Cu514       N522   2.068       .  S
N515        N516   1.321       .  A
N515        C519   1.343   1_455  A
N516        C517   1.346       .  A
C517        C518   1.382       .  A
C517        H520   1.082       .  S
C518        C519   1.381   1_455  A
C518       C3131   1.467   1_455  S
C519        H521   1.082       .  S
N522        N523   1.323       .  A
N522        C526   1.343       .  A
N523        C524   1.347       .  A
C524        C525   1.385       .  A
C524        H527   1.082       .  S
C525        C526   1.380       .  A
C525       C2624   1.472       .  S
C526        H528   1.082       .  S
N529        N530   1.322       .  A
N529        C533   1.350       .  A
N529       Cu537   2.091       .  S
N530        C531   1.344       .  A
N530       Cu536   2.071       .  S
C531        C532   1.383       .  A
C531        H534   1.082       .  S
C532        C533   1.388       .  A
C532       C2519   1.479       .  S
C533        H535   1.082       .  S
Cu536       N539   2.070       .  S
Cu537       N547   2.091       .  S
Cu538       N540   2.080       .  S
Cu538       N546   2.080       .  S
N539        N540   1.322       .  A
N539        C543   1.344       .  A
N540        C541   1.347       .  A
C541        C542   1.385       .  A
C541        H544   1.082       .  S
C542        C543   1.382       .  A
C542       C2930   1.473       .  S
C543        H545   1.082       .  S
N546        N547   1.324       .  A
N546        C550   1.346       .  A
N547        C548   1.348       .  A
C548        C549   1.386       .  A
C548        H551   1.082       .  S
C549        C550   1.382       .  A
C549       C2480   1.476       .  S
C550        H552   1.082       .  S
N553        N554   1.322       .  A
N553        C557   1.347       .  A
N553       Cu561   2.081       .  S
N554        C555   1.342       .  A
N554       Cu560   2.062       .  S
C555        C556   1.381       .  A
C555        H558   1.082       .  S
C556        C557   1.386       .  A
C556       C2570   1.473       .  S
C557        H559   1.082       .  S
Cu560       N563   2.062       .  S
Cu561       N571   2.082       .  S
Cu562       N564   2.078       .  S
Cu562       N570   2.079       .  S
N563        N564   1.322       .  A
N563        C567   1.344       .  A
N564        C565   1.345       .  A
C565        C566   1.384       .  A
C565        H568   1.082       .  S
C566        C567   1.381       .  A
C566       C3185   1.470       .  S
C567        H569   1.082       .  S
N570        N571   1.323       .  A
N570        C574   1.345       .  A
N571        C572   1.347       .  A
C572        C573   1.384       .  A
C572        H575   1.082       .  S
C573        C574   1.382       .  A
C573       C2483   1.474       .  S
C574        H576   1.082       .  S
N577        N578   1.322       .  A
N577        C581   1.349       .  A
N577       Cu585   2.087       .  S
N578        C579   1.342       .  A
N578       Cu584   2.070       .  S
C579        C580   1.382       .  A
C579        H582   1.082       .  S
C580        C581   1.387       .  A
C580       C2447   1.477       .  S
C581        H583   1.082       .  S
Cu584       N587   2.069       .  S
Cu585       N595   2.087       .  S
Cu586       N588   2.078       .  S
Cu586       N594   2.078       .  S
N587        N588   1.321       .  A
N587        C591   1.345       .  A
N588        C589   1.346       .  A
C589        C590   1.386       .  A
C589        H592   1.082       .  S
C590        C591   1.383       .  A
C590       C2768   1.475       .  S
C591        H593   1.082       .  S
N594        N595   1.324       .  A
N594        C598   1.345       .  A
N595        C596   1.347       .  A
C596        C597   1.384       .  A
C596        H599   1.082       .  S
C597        C598   1.382       .  A
C597       C2462   1.474       .  S
C598        H600   1.082       .  S
N601        N602   1.322       .  A
N601        C605   1.348       .  A
N601       Cu609   2.085       .  S
N602        C603   1.345       .  A
N602       Cu608   2.075       .  S
C603        C604   1.384       .  A
C603        H606   1.082       .  S
C604        C605   1.387       .  A
C604       C2426   1.479       .  S
C605        H607   1.082       .  S
Cu608       N611   2.074       .  S
Cu609       N619   2.084       .  S
Cu610       N612   2.084       .  S
Cu610       N618   2.084       .  S
N611        N612   1.322       .  A
N611        C615   1.346       .  A
N612        C613   1.347       .  A
C613        C614   1.385       .  A
C613        H616   1.082       .  S
C614        C615   1.382       .  A
C614       C3041   1.473       .  S
C615        H617   1.082       .  S
N618        N619   1.324       .  A
N618        C622   1.346       .  A
N619        C620   1.347       .  A
C620        C621   1.383       .  A
C620        H623   1.082       .  S
C621        C622   1.384       .  A
C621       C2465   1.475       .  S
C622        H624   1.082       .  S
N625        N626   1.322   1_655  A
N625        C629   1.348       .  A
N625       Cu633   2.079       .  S
N626        C627   1.344       .  A
N626       Cu632   2.071       .  S
C627        C628   1.381       .  A
C627        H630   1.082       .  S
C628        C629   1.385   1_455  A
C628       C2390   1.472       .  S
C629        H631   1.082       .  S
Cu632       N635   2.072   1_455  S
Cu633       N643   2.080       .  S
Cu634       N636   2.086       .  S
Cu634       N642   2.085       .  S
N635        N636   1.322       .  A
N635        C639   1.344   1_655  A
N636        C637   1.348       .  A
C637        C638   1.387       .  A
C637        H640   1.082       .  S
C638        C639   1.383   1_655  A
C638       C2408   1.477   1_655  S
C639        H641   1.082       .  S
N642        N643   1.324       .  A
N642        C646   1.348       .  A
N643        C644   1.344       .  A
C644        C645   1.383       .  A
C644        H647   1.081       .  S
C645        C646   1.386       .  A
C645       C2444   1.477       .  S
C646        H648   1.082       .  S
N649        N650   1.322       .  A
N649        C653   1.346       .  A
N649       Cu657   2.076       .  S
N650        C651   1.346       .  A
N650       Cu656   2.074       .  S
C651        C652   1.384       .  A
C651        H654   1.082       .  S
C652        C653   1.385       .  A
C652       C3113   1.475       .  S
C653        H655   1.082       .  S
Cu656       N659   2.074       .  S
Cu657       N667   2.077       .  S
Cu658       N660   2.089       .  S
Cu658       N666   2.089       .  S
N659        N660   1.323       .  A
N659        C663   1.345       .  A
N660        C661   1.348       .  A
C661        C662   1.387       .  A
C661        H664   1.082       .  S
C662        C663   1.383       .  A
C662       C2411   1.478       .  S
C663        H665   1.082       .  S
N666        N667   1.323       .  A
N666        C670   1.348       .  A
N667        C668   1.345       .  A
C668        C669   1.384       .  A
C668        H671   1.082       .  S
C669        C670   1.386       .  A
C669       C2372   1.479       .  S
C670        H672   1.082       .  S
N673        N674   1.323       .  A
N673        C677   1.348       .  A
N673       Cu681   2.097       .  S
N674        C675   1.345       .  A
N674       Cu680   2.069       .  S
C675        C676   1.382       .  A
C675        H678   1.082       .  S
C676        C677   1.388       .  A
C676       C2357   1.478       .  S
C677        H679   1.082       .  S
Cu680       N683   2.067       .  S
Cu681       N691   2.098       .  S
Cu682       N684   2.070       .  S
Cu682       N690   2.071       .  S
N683        N684   1.321       .  A
N683        C687   1.344       .  A
N684        C685   1.345       .  A
C685        C686   1.383       .  A
C685        H688   1.082       .  S
C686        C687   1.382       .  A
C686       C2339   1.469       .  S
C687        H689   1.082       .  S
N690        N691   1.323       .  A
N690        C694   1.343       .  A
N691        C692   1.351       .  A
C692        C693   1.389       .  A
C692        H695   1.082       .  S
C693        C694   1.382       .  A
C693       C2429   1.480       .  S
C694        H696   1.082       .  S
N697        N698   1.322       .  A
N697        C701   1.350       .  A
N697       Cu705   2.088       .  S
N698        C699   1.342       .  A
N698       Cu704   2.068       .  S
C699        C700   1.381       .  A
C699        H702   1.082       .  S
C700        C701   1.388       .  A
C700       C2825   1.475       .  S
C701        H703   1.082       .  S
Cu704       N707   2.069       .  S
Cu705       N715   2.090       .  S
Cu706       N708   2.080       .  S
Cu706       N714   2.081       .  S
N707        N708   1.321       .  A
N707        C711   1.344       .  A
N708        C709   1.347       .  A
C709        C710   1.387       .  A
C709        H712   1.082       .  S
C710        C711   1.383       .  A
C710       C2354   1.476       .  S
C711        H713   1.082       .  S
N714        N715   1.325       .  A
N714        C718   1.348       .  A
N715        C716   1.345       .  A
C716        C717   1.384       .  A
C716        H719   1.082       .  S
C717        C718   1.384       .  A
C717       C2318   1.477       .  S
C718        H720   1.082       .  S
N721        N722   1.322       .  A
N721        C725   1.349       .  A
N721       Cu729   2.081       .  S
N722        C723   1.344       .  A
N722       Cu728   2.076       .  S
C723        C724   1.384       .  A
C723        H726   1.082       .  S
C724        C725   1.386       .  A
C724       C2321   1.478       .  S
C725        H727   1.082       .  S
Cu728       N731   2.076       .  S
Cu729       N739   2.082       .  S
Cu730       N732   2.085       .  S
Cu730       N738   2.085       .  S
N731        N732   1.322       .  A
N731        C735   1.345       .  A
N732        C733   1.348       .  A
C733        C734   1.386       .  A
C733        H736   1.082       .  S
C734        C735   1.383       .  A
C734       C2285   1.476       .  S
C735        H737   1.082       .  S
N738        N739   1.324       .  A
N738        C742   1.346       .  A
N739        C740   1.347       .  A
C740        C741   1.383       .  A
C740        H743   1.082       .  S
C741        C742   1.383       .  A
C741       C2300   1.474       .  S
C742        H744   1.082       .  S
N745        N746   1.322       .  A
N745        C749   1.349       .  A
N745       Cu753   2.087       .  S
N746        C747   1.344       .  A
N746       Cu752   2.073       .  S
C747        C748   1.384       .  A
C747        H750   1.082       .  S
C748        C749   1.388       .  A
C748       C2375   1.479       .  S
C749        H751   1.082       .  S
Cu752       N755   2.073       .  S
Cu753       N763   2.087       .  S
Cu754       N756   2.081       .  S
Cu754       N762   2.081       .  S
N755        N756   1.322       .  A
N755        C759   1.345       .  A
N756        C757   1.347       .  A
C757        C758   1.386       .  A
C757        H760   1.082       .  S
C758        C759   1.382       .  A
C758       C2267   1.475       .  S
C759        H761   1.082       .  S
N762        N763   1.324       .  A
N762        C766   1.346       .  A
N763        C764   1.347       .  A
C764        C765   1.384       .  A
C764        H767   1.082       .  S
C765        C766   1.383       .  A
C765       C2303   1.474       .  S
C766        H768   1.082       .  S
N769        N770   1.322       .  A
N769        C773   1.347       .  A
N769       Cu777   2.088       .  S
N770        C771   1.343       .  A
N770       Cu776   2.064       .  S
C771        C772   1.381       .  A
C771        H774   1.082       .  S
C772        C773   1.387       .  A
C772       C2246   1.474       .  S
C773        H775   1.082       .  S
Cu776       N779   2.064       .  S
Cu777       N787   2.089       .  S
Cu778       N780   2.087       .  S
Cu778       N786   2.087       .  S
N779        N780   1.321       .  A
N779        C783   1.344       .  A
N780        C781   1.348       .  A
C781        C782   1.387       .  A
C781        H784   1.082       .  S
C782        C783   1.382       .  A
C782       C2264   1.475       .  S
C783        H785   1.082       .  S
N786        N787   1.324       .  A
N786        C790   1.346       .  A
N787        C788   1.349       .  A
C788        C789   1.387       .  A
C788        H791   1.082       .  S
C789        C790   1.385       .  A
C789       C2228   1.481       .  S
C790        H792   1.081       .  S
N793        N794   1.322       .  A
N793        C797   1.346       .  A
N793       Cu801   2.072       .  S
N794        C795   1.344       .  A
N794       Cu800   2.075       .  S
C795        C796   1.383       .  A
C795        H798   1.081       .  S
C796        C797   1.384       .  A
C796       C2249   1.473       .  S
C797        H799   1.082       .  S
Cu800       N803   2.074       .  S
Cu801       N811   2.072       .  S
Cu802       N804   2.078       .  S
Cu802       N810   2.078       .  S
N803        N804   1.322       .  A
N803        C807   1.344       .  A
N804        C805   1.348       .  A
C805        C806   1.385       .  A
C805        H808   1.082       .  S
C806        C807   1.383       .  A
C806       C2192   1.475       .  S
C807        H809   1.082       .  S
N810        N811   1.323       .  A
N810        C814   1.343       .  A
N811        C812   1.346       .  A
C812        C813   1.383       .  A
C812        H815   1.082       .  S
C813        C814   1.384       .  A
C813       C2213   1.474       .  S
C814        H816   1.082       .  S
N817        N818   1.324       .  A
N817        C821   1.348       .  A
N817       Cu825   2.091       .  S
N818        C819   1.345       .  A
N818       Cu824   2.078       .  S
C819        C820   1.384       .  A
C819        H822   1.082       .  S
C820        C821   1.385       .  A
C820       C2156   1.478       .  S
C821        H823   1.082       .  S
Cu824       N827   2.076       .  S
Cu825       N835   2.091       .  S
Cu826       N828   2.063       .  S
Cu826       N834   2.064       .  S
N827        N828   1.321       .  A
N827        C831   1.346       .  A
N828        C829   1.343       .  A
C829        C830   1.382       .  A
C829        H832   1.082       .  S
C830        C831   1.384       .  A
C830       C2336   1.470       .  S
C831        H833   1.082       .  S
N834        N835   1.322       .  A
N834        C838   1.342       .  A
N835        C836   1.350       .  A
C836        C837   1.387       .  A
C836        H839   1.082       .  S
C837        C838   1.380       .  A
C837       C2177   1.473       .  S
C838        H840   1.082       .  S
N841        N842   1.324       .  A
N841        C845   1.350       .  A
N841       Cu849   2.089       .  S
N842        C843   1.341       .  A
N842       Cu848   2.075       .  S
C843        C844   1.381       .  A
C843        H846   1.081       .  S
C844        C845   1.386       .  A
C844       C2210   1.475       .  S
C845        H847   1.082       .  S
Cu848       N851   2.075       .  S
Cu849       N859   2.088       .  S
Cu850       N852   2.071       .  S
Cu850       N858   2.072       .  S
N851        N852   1.320       .  A
N851        C855   1.348       .  A
N852        C853   1.344       .  A
C853        C854   1.383       .  A
C853        H856   1.082       .  S
C854        C855   1.386       .  A
C854       C2555   1.476       .  S
C855        H857   1.082       .  S
N858        N859   1.323       .  A
N858        C862   1.343       .  A
N859        C860   1.349       .  A
C860        C861   1.386       .  A
C860        H863   1.082       .  S
C861        C862   1.380       .  A
C861       C2174   1.472       .  S
C862        H864   1.082       .  S
N865        N866   1.321       .  A
N865        C869   1.346       .  A
N865       Cu873   2.080       .  S
N866        C867   1.345       .  A
N866       Cu872   2.067       .  S
C867        C868   1.383       .  A
C867        H870   1.082       .  S
C868        C869   1.385       .  A
C868       C2606   1.474       .  S
C869        H871   1.082       .  S
Cu872       N875   2.067       .  S
Cu873       N883   2.081       .  S
Cu874       N876   2.071       .  S
Cu874       N882   2.071       .  S
N875        N876   1.322       .  A
N875        C879   1.342       .  A
N876        C877   1.345       .  A
C877        C878   1.383       .  A
C877        H880   1.082       .  S
C878        C879   1.381       .  A
C878       C2141   1.470       .  S
C879        H881   1.081       .  S
N882        N883   1.322       .  A
N882        C886   1.346       .  A
N883        C884   1.345       .  A
C884        C885   1.384       .  A
C884        H887   1.081       .  S
C885        C886   1.383       .  A
C885       C2120   1.474       .  S
C886        H888   1.082       .  S
N889        N890   1.322       .  A
N889        C893   1.345       .  A
N889       Cu897   2.076       .  S
N890        C891   1.343       .  A
N890       Cu896   2.068       .  S
C891        C892   1.381       .  A
C891        H894   1.082       .  S
C892        C893   1.384       .  A
C892       C2138   1.471       .  S
C893        H895   1.082       .  S
Cu896       N899   2.068       .  S
Cu897       N907   2.077       .  S
Cu898       N900   2.087       .  S
Cu898       N906   2.087       .  S
N899        N900   1.322       .  A
N899        C903   1.344       .  A
N900        C901   1.348       .  A
C901        C902   1.387       .  A
C901        H904   1.082       .  S
C902        C903   1.382       .  A
C902       C2105   1.475       .  S
C903        H905   1.082       .  S
N906        N907   1.323       .  A
N906        C910   1.344       .  A
N907        C908   1.348       .  A
C908        C909   1.385       .  A
C908        H911   1.082       .  S
C909        C910   1.385       .  A
C909       C2159   1.478       .  S
C910        H912   1.081       .  S
N913        N914   1.322       .  A
N913        C917   1.349       .  A
N913       Cu921   2.080       .  S
N914        C915   1.342       .  A
N914       Cu920   2.067       .  S
C915        C916   1.382       .  A
C915        H918   1.082       .  S
C916        C917   1.386       .  A
C916       C2123   1.475       .  S
C917        H919   1.082       .  S
Cu920       N923   2.067       .  S
Cu921       N931   2.081       .  S
Cu922       N924   2.078       .  S
Cu922       N930   2.079       .  S
N923        N924   1.321       .  A
N923        C927   1.343       .  A
N924        C925   1.348       .  A
C925        C926   1.386       .  A
C925        H928   1.082       .  S
C926        C927   1.382       .  A
C926       C2066   1.473       .  S
C927        H929   1.082       .  S
N930        N931   1.324       .  A
N930        C934   1.344       .  A
N931        C932   1.347       .  A
C932        C933   1.383       .  A
C932        H935   1.082       .  S
C933        C934   1.381       .  A
C933       C2084   1.471       .  S
C934        H936   1.082       .  S
N937        N938   1.324       .  A
N937        C941   1.349       .  A
N937       Cu945   2.093       .  S
N938        C939   1.345       .  A
N938       Cu944   2.077       .  S
C939        C940   1.383       .  A
C939        H942   1.082       .  S
C940        C941   1.387       .  A
C940       C2231   1.479       .  S
C941        H943   1.082       .  S
Cu944       N947   2.074       .  S
Cu945       N955   2.093       .  S
Cu946       N948   2.063       .  S
Cu946       N954   2.063       .  S
N947        N948   1.320       .  A
N947        C951   1.344       .  A
N948        C949   1.345       .  A
C949        C950   1.383       .  A
C949        H952   1.082       .  S
C950        C951   1.384       .  A
C950       C2051   1.471       .  S
C951        H953   1.082       .  S
N954        N955   1.323       .  A
N954        C958   1.340       .  A
N955        C956   1.351       .  A
C956        C957   1.386       .  A
C956        H959   1.082       .  S
C957        C958   1.378       .  A
C957       C2087   1.471       .  S
C958        H960   1.082       .  S
N961        N962   1.322       .  A
N961        C965   1.348       .  A
N961       Cu969   2.077       .  S
N962        C963   1.343       .  A
N962       Cu968   2.073       .  S
C963        C964   1.381       .  A
C963        H966   1.082       .  S
C964        C965   1.384       .  A
C964       C1994   1.472       .  S
C965        H967   1.082       .  S
Cu968       N971   2.074       .  S
Cu969       N979   2.078       .  S
Cu970       N972   2.085       .  S
Cu970       N978   2.085       .  S
N971        N972   1.322       .  A
N971        C975   1.345       .  A
N972        C973   1.348       .  A
C973        C974   1.386       .  A
C973        H976   1.082       .  S
C974        C975   1.384       .  A
C974       C2030   1.478       .  S
C975        H977   1.082       .  S
N978        N979   1.323       .  A
N978        C982   1.348       .  A
N979        C980   1.344       .  A
C980        C981   1.384       .  A
C980        H983   1.082       .  S
C981        C982   1.385       .  A
C981       C2012   1.476       .  S
C982        H984   1.082       .  S
N985        N986   1.322       .  A
N985        C989   1.348       .  A
N985       Cu993   2.086       .  S
N986        C987   1.343       .  A
N986       Cu992   2.066       .  S
C987        C988   1.382       .  A
C987        H990   1.082       .  S
C988        C989   1.388       .  A
C988       C2033   1.477       .  S
C989        H991   1.082       .  S
Cu992       N995   2.066       .  S
Cu993      N1003   2.086       .  S
Cu994       N996   2.077       .  S
Cu994      N1002   2.079       .  S
N995        N996   1.321       .  A
N995        C999   1.342       .  A
N996        C997   1.349       .  A
C997        C998   1.386       .  A
C997       H1000   1.082       .  S
C998        C999   1.381       .  A
C998       C3005   1.472       .  S
C999       H1001   1.082       .  S
N1002      N1003   1.324       .  A
N1002      C1006   1.344       .  A
N1003      C1004   1.348       .  A
C1004      C1005   1.384       .  A
C1004      H1007   1.082       .  S
C1005      C1006   1.383       .  A
C1005      C1976   1.475       .  S
C1006      H1008   1.082       .  S
N1009      N1010   1.321       .  A
N1009      C1013   1.347       .  A
N1009     Cu1017   2.074       .  S
N1010      C1011   1.343       .  A
N1010     Cu1016   2.068       .  S
C1011      C1012   1.383       .  A
C1011      H1014   1.081       .  S
C1012      C1013   1.386       .  A
C1012      C1940   1.474       .  S
C1013      H1015   1.082       .  S
Cu1016     N1019   2.068       .  S
Cu1017     N1027   2.074       .  S
Cu1018     N1020   2.081       .  S
Cu1018     N1026   2.081       .  S
N1019      N1020   1.322       .  A
N1019      C1023   1.345       .  A
N1020      C1021   1.346       .  A
C1021      C1022   1.384       .  A
C1021      H1024   1.082       .  S
C1022      C1023   1.382       .  A
C1022      C3218   1.472       .  S
C1023      H1025   1.082       .  S
N1026      N1027   1.324       .  A
N1026      C1030   1.347       .  A
N1027      C1028   1.344       .  A
C1028      C1029   1.381       .  A
C1028      H1031   1.082       .  S
C1029      C1030   1.383       .  A
C1029      C1961   1.471       .  S
C1030      H1032   1.082       .  S
N1033      N1034   1.321       .  A
N1033      C1037   1.348       .  A
N1033     Cu1041   2.074       .  S
N1034      C1035   1.343       .  A
N1034     Cu1040   2.073       .  S
C1035      C1036   1.383       .  A
C1035      H1038   1.081       .  S
C1036      C1037   1.386       .  A
C1036      C2015   1.475       .  S
C1037      H1039   1.082       .  S
Cu1040     N1043   2.073       .  S
Cu1041     N1051   2.074       .  S
Cu1042     N1044   2.085       .  S
Cu1042     N1050   2.085       .  S
N1043      N1044   1.322       .  A
N1043      C1047   1.346       .  A
N1044      C1045   1.347       .  A
C1045      C1046   1.386       .  A
C1045      H1048   1.082       .  S
C1046      C1047   1.383       .  A
C1046      C2897   1.476       .  S
C1047      H1049   1.082       .  S
N1050      N1051   1.324       .  A
N1050      C1054   1.346       .  A
N1051      C1052   1.345       .  A
C1052      C1053   1.380       .  A
C1052      H1055   1.082       .  S
C1053      C1054   1.383       .  A
C1053      C1958   1.470       .  S
C1054      H1056   1.082       .  S
N1057      N1058   1.323       .  A
N1057      C1061   1.348       .  A
N1057     Cu1065   2.086       .  S
N1058      C1059   1.343       .  A
N1058     Cu1064   2.071       .  S
C1059      C1060   1.382       .  A
C1059      H1062   1.082       .  S
C1060      C1061   1.386       .  A
C1060      C1922   1.475       .  S
C1061      H1063   1.082       .  S
Cu1064     N1067   2.070       .  S
Cu1065     N1075   2.086       .  S
Cu1066     N1068   2.069       .  S
Cu1066     N1074   2.070       .  S
N1067      N1068   1.321       .  A
N1067      C1071   1.346   1_655  A
N1068      C1069   1.344       .  A
C1069      C1070   1.382   1_655  A
C1069      H1072   1.082       .  S
C1070      C1071   1.382       .  A
C1070      C2048   1.469       .  S
C1071      H1073   1.082       .  S
N1074      N1075   1.323       .  A
N1074      C1078   1.344       .  A
N1075      C1076   1.348       .  A
C1076      C1077   1.386       .  A
C1076      H1079   1.082       .  S
C1077      C1078   1.382       .  A
C1077      C1943   1.475       .  S
C1078      H1080   1.082       .  S
N1081      N1082   1.321       .  A
N1081      C1085   1.346       .  A
N1081     Cu1089   2.071       .  S
N1082      C1083   1.341       .  A
N1082     Cu1088   2.059       .  S
C1083      C1084   1.379       .  A
C1083      H1086   1.082   1_455  S
C1084      C1085   1.383       .  A
C1084      C2717   1.465   1_455  S
C1085      H1087   1.082       .  S
Cu1088     N1091   2.061       .  S
Cu1089     N1099   2.073       .  S
Cu1090     N1092   2.083       .  S
Cu1090     N1098   2.083       .  S
N1091      N1092   1.322       .  A
N1091      C1095   1.343       .  A
N1092      C1093   1.347       .  A
C1093      C1094   1.386       .  A
C1093      H1096   1.082       .  S
C1094      C1095   1.382       .  A
C1094      C1925   1.474       .  S
C1095      H1097   1.082   1_455  S
N1098      N1099   1.323       .  A
N1098      C1102   1.348       .  A
N1099      C1100   1.343       .  A
C1100      C1101   1.383       .  A
C1100      H1103   1.082       .  S
C1101      C1102   1.385       .  A
C1101      C1904   1.475       .  S
C1102      H1104   1.082       .  S
N1105      N1106   1.322       .  A
N1105      C1109   1.347       .  A
N1105     Cu1113   2.076       .  S
N1106      C1107   1.344       .  A
N1106     Cu1112   2.075       .  S
C1107      C1108   1.383       .  A
C1107      H1110   1.082       .  S
C1108      C1109   1.384       .  A
C1108      C1979   1.473       .  S
C1109      H1111   1.082       .  S
Cu1112     N1115   2.075       .  S
Cu1113     N1123   2.076       .  S
Cu1114     N1116   2.080       .  S
Cu1114     N1122   2.079       .  S
N1115      N1116   1.322       .  A
N1115      C1119   1.346       .  A
N1116      C1117   1.347       .  A
C1117      C1118   1.385       .  A
C1117      H1120   1.082       .  S
C1118      C1119   1.383       .  A
C1118      C2102   1.475       .  S
C1119      H1121   1.082       .  S
N1122      N1123   1.323       .  A
N1122      C1126   1.344       .  A
N1123      C1124   1.347       .  A
C1124      C1125   1.382       .  A
C1124      H1127   1.082       .  S
C1125      C1126   1.382       .  A
C1125      C1889   1.470       .  S
C1126      H1128   1.082       .  S
N1129      N1130   1.323       .  A
N1129      C1133   1.349       .  A
N1129     Cu1137   2.082       .  S
N1130      C1131   1.343       .  A
N1130     Cu1136   2.079       .  S
C1131      C1132   1.384       .  A
C1131      H1134   1.082       .  S
C1132      C1133   1.386       .  A
C1132      C1907   1.477       .  S
C1133      H1135   1.082       .  S
Cu1136     N1139   2.080       .  S
Cu1137     N1147   2.083       .  S
Cu1138     N1140   2.074       .  S
Cu1138     N1146   2.073       .  S
N1139      N1140   1.321       .  A
N1139      C1143   1.347       .  A
N1140      C1141   1.346       .  A
C1141      C1142   1.384       .  A
C1141      H1144   1.082       .  S
C1142      C1143   1.386       .  A
C1142      C1868   1.477       .  S
C1143      H1145   1.082       .  S
N1146      N1147   1.324       .  A
N1146      C1150   1.345       .  A
N1147      C1148   1.346       .  A
C1148      C1149   1.384       .  A
C1148      H1151   1.082       .  S
C1149      C1150   1.381       .  A
C1149      C1886   1.471       .  S
C1150      H1152   1.082       .  S
N1153      N1154   1.322       .  A
N1153      C1157   1.349       .  A
N1153     Cu1161   2.086       .  S
N1154      C1155   1.344       .  A
N1154     Cu1160   2.068       .  S
C1155      C1156   1.382       .  A
C1155      H1158   1.082       .  S
C1156      C1157   1.388       .  A
C1156      C2282   1.476       .  S
C1157      H1159   1.082       .  S
Cu1160     N1163   2.069       .  S
Cu1161     N1171   2.086       .  S
Cu1162     N1164   2.079       .  S
Cu1162     N1170   2.079       .  S
N1163      N1164   1.322       .  A
N1163      C1167   1.343       .  A
N1164      C1165   1.347       .  A
C1165      C1166   1.385       .  A
C1165      H1168   1.082       .  S
C1166      C1167   1.383       .  A
C1166      C1850   1.474       .  S
C1167      H1169   1.082       .  S
N1170      N1171   1.324       .  A
N1170      C1174   1.348       .  A
N1171      C1172   1.344       .  A
C1172      C1173   1.385       .  A
C1172      H1175   1.081       .  S
C1173      C1174   1.384       .  A
C1173      C1832   1.477       .  S
C1174      H1176   1.082       .  S
N1177      N1178   1.322       .  A
N1177      C1181   1.347       .  A
N1177     Cu1185   2.088       .  S
N1178      C1179   1.345       .  A
N1178     Cu1184   2.064       .  S
C1179      C1180   1.382       .  A
C1179      H1182   1.082       .  S
C1180      C1181   1.387       .  A
C1180      C1796   1.476       .  S
C1181      H1183   1.082       .  S
Cu1184     N1187   2.064       .  S
Cu1185     N1195   2.088       .  S
Cu1186     N1188   2.088       .  S
Cu1186     N1194   2.089       .  S
N1187      N1188   1.322       .  A
N1187      C1191   1.344       .  A
N1188      C1189   1.347       .  A
C1189      C1190   1.387       .  A
C1189      H1192   1.082       .  S
C1190      C1191   1.381       .  A
C1190      C1853   1.475       .  S
C1191      H1193   1.082       .  S
N1194      N1195   1.324       .  A
N1194      C1198   1.349       .  A
N1195      C1196   1.346       .  A
C1196      C1197   1.385       .  A
C1196      H1199   1.082       .  S
C1197      C1198   1.387       .  A
C1197      C1817   1.482       .  S
C1198      H1200   1.082       .  S
N1201      N1202   1.322       .  A
N1201      C1205   1.352       .  A
N1201     Cu1209   2.098       .  S
N1202      C1203   1.342       .  A
N1202     Cu1208   2.069       .  S
C1203      C1204   1.382       .  A
C1203      H1206   1.082       .  S
C1204      C1205   1.390       .  A
C1204      C1763   1.481       .  S
C1205      H1207   1.082       .  S
Cu1208     N1211   2.069       .  S
Cu1209     N1219   2.099       .  S
Cu1210     N1212   2.077       .  S
Cu1210     N1218   2.078       .  S
N1211      N1212   1.321       .  A
N1211      C1215   1.344       .  A
N1212      C1213   1.348       .  A
C1213      C1214   1.385       .  A
C1213      H1216   1.082       .  S
C1214      C1215   1.383       .  A
C1214      C2393   1.473       .  S
C1215      H1217   1.082       .  S
N1218      N1219   1.325       .  A
N1218      C1222   1.344       .  A
N1219      C1220   1.350       .  A
C1220      C1221   1.387       .  A
C1220      H1223   1.082       .  S
C1221      C1222   1.380       .  A
C1221      C1778   1.476       .  S
C1222      H1224   1.082       .  S
N1225      N1226   1.324       .  A
N1225      C1229   1.350       .  A
N1225     Cu1233   2.093       .  S
N1226      C1227   1.345       .  A
N1226     Cu1232   2.081       .  S
C1227      C1228   1.384       .  A
C1227      H1230   1.082       .  S
C1228      C1229   1.387       .  A
C1228      C1814   1.481       .  S
C1229      H1231   1.082       .  S
Cu1232     N1235   2.079       .  S
Cu1233     N1243   2.093       .  S
Cu1234     N1236   2.070       .  S
Cu1234     N1242   2.071       .  S
N1235      N1236   1.321       .  A
N1235      C1239   1.346       .  A
N1236      C1237   1.345       .  A
C1237      C1238   1.382       .  A
C1237      H1240   1.082       .  S
C1238      C1239   1.384       .  A
C1238      C2501   1.472       .  S
C1239      H1241   1.082       .  S
N1242      N1243   1.323       .  A
N1242      C1246   1.343       .  A
N1243      C1244   1.350       .  A
C1244      C1245   1.386       .  A
C1244      H1247   1.082       .  S
C1245      C1246   1.381       .  A
C1245      C1781   1.475       .  S
C1246      H1248   1.082       .  S
N1249      N1250   1.322       .  A
N1249      C1253   1.347       .  A
N1249     Cu1257   2.077       .  S
N1250      C1251   1.341       .  A
N1250     Cu1256   2.059       .  S
C1251      C1252   1.380       .  A
C1251      H1254   1.082       .  S
C1252      C1253   1.385       .  A
C1252      C1724   1.470       .  S
C1253      H1255   1.082       .  S
Cu1256     N1259   2.059       .  S
Cu1257     N1267   2.079       .  S
Cu1258     N1260   2.073       .  S
Cu1258     N1266   2.074       .  S
N1259      N1260   1.320       .  A
N1259      C1263   1.341       .  A
N1260      C1261   1.348       .  A
C1261      C1262   1.385       .  A
C1261      H1264   1.082       .  S
C1262      C1263   1.380       .  A
C1262      C1706   1.470       .  S
C1263      H1265   1.082       .  S
N1266      N1267   1.324       .  A
N1266      C1270   1.342       .  A
N1267      C1268   1.348       .  A
C1268      C1269   1.384       .  A
C1268      H1271   1.082       .  S
C1269      C1270   1.380       .  A
C1269      C1745   1.470       .  S
C1270      H1272   1.082       .  S
N1273      N1274   1.322       .  A
N1273      C1277   1.350       .  A
N1273     Cu1281   2.082       .  S
N1274      C1275   1.340       .  A
N1274     Cu1280   2.068       .  S
C1275      C1276   1.382       .  A
C1275      H1278   1.081       .  S
C1276      C1277   1.387       .  A
C1276      C1835   1.476       .  S
C1277      H1279   1.082       .  S
Cu1280     N1283   2.068       .  S
Cu1281     N1291   2.082       .  S
Cu1282     N1284   2.074       .  S
Cu1282     N1290   2.075       .  S
N1283      N1284   1.321       .  A
N1283      C1287   1.344       .  A
N1284      C1285   1.347       .  A
C1285      C1286   1.383       .  A
C1285      H1288   1.082       .  S
C1286      C1287   1.382       .  A
C1286      C1997   1.470       .  S
C1287      H1289   1.082       .  S
N1290      N1291   1.324       .  A
N1290      C1294   1.344       .  A
N1291      C1292   1.347       .  A
C1292      C1293   1.383       .  A
C1292      H1295   1.082       .  S
C1293      C1294   1.381       .  A
C1293      C1742   1.470       .  S
C1294      H1296   1.082       .  S
N1297      N1298   1.323       .  A
N1297      C1301   1.347       .  A
N1297     Cu1305   2.080       .  S
N1298      C1299   1.345       .  A
N1298     Cu1304   2.083       .  S
C1299      C1300   1.385       .  A
C1299      H1302   1.082       .  S
C1300      C1301   1.384       .  A
C1300      C1691   1.477       .  S
C1301      H1303   1.082       .  S
Cu1304     N1307   2.082       .  S
Cu1305     N1315   2.080       .  S
Cu1306     N1308   2.085       .  S
Cu1306     N1314   2.085       .  S
N1307      N1308   1.322       .  A
N1307      C1311   1.347       .  A
N1308      C1309   1.347       .  A
C1309      C1310   1.385       .  A
C1309      H1312   1.082       .  S
C1310      C1311   1.385       .  A
C1310      C1871   1.477       .  S
C1311      H1313   1.082       .  S
N1314      N1315   1.323       .  A
N1314      C1318   1.345       .  A
N1315      C1316   1.348       .  A
C1316      C1317   1.385       .  A
C1316      H1319   1.082       .  S
C1317      C1318   1.385       .  A
C1317      C1760   1.479       .  S
C1318      H1320   1.081       .  S
N1321      N1322   1.322       .  A
N1321      C1325   1.346       .  A
N1321     Cu1329   2.078       .  S
N1322      C1323   1.345       .  A
N1322     Cu1328   2.075       .  S
C1323      C1324   1.384       .  A
C1323      H1326   1.082       .  S
C1324      C1325   1.385       .  A
C1324      C1688   1.476       .  S
C1325      H1327   1.082       .  S
Cu1328     N1331   2.073       .  S
Cu1329     N1339   2.077       .  S
Cu1330     N1332   2.071       .  S
Cu1330     N1338   2.070       .  S
N1331      N1332   1.322       .  A
N1331      C1335   1.344       .  A
N1332      C1333   1.346       .  A
C1333      C1334   1.383       .  A
C1333      H1336   1.082       .  S
C1334      C1335   1.382       .  A
C1334      C2645   1.470       .  S
C1335      H1337   1.082       .  S
N1338      N1339   1.323       .  A
N1338      C1342   1.343       .  A
N1339      C1340   1.346       .  A
C1340      C1341   1.383       .  A
C1340      H1343   1.082       .  S
C1341      C1342   1.382       .  A
C1341      C1727   1.471       .  S
C1342      H1344   1.082       .  S
N1345      N1346   1.322       .  A
N1345      C1349   1.350       .  A
N1345     Cu1353   2.088       .  S
N1346      C1347   1.344       .  A
N1346     Cu1352   2.075       .  S
C1347      C1348   1.383       .  A
C1347      H1350   1.082       .  S
C1348      C1349   1.388       .  A
C1348      C1655   1.479       .  S
C1349      H1351   1.082       .  S
Cu1352     N1355   2.074       .  S
Cu1353     N1363   2.088       .  S
Cu1354     N1356   2.085       .  S
Cu1354     N1362   2.085       .  S
N1355      N1356   1.322       .  A
N1355      C1359   1.346       .  A
N1356      C1357   1.347       .  A
C1357      C1358   1.386       .  A
C1357      H1360   1.082       .  S
C1358      C1359   1.383       .  A
C1358      C2195   1.476       .  S
C1359      H1361   1.082       .  S
N1362      N1363   1.324       .  A
N1362      C1366   1.347       .  A
N1363      C1364   1.347       .  A
C1364      C1365   1.384       .  A
C1364      H1367   1.082       .  S
C1365      C1366   1.383       .  A
C1365      C1673   1.475       .  S
C1366      H1368   1.082       .  S
N1369      N1370   1.322       .  A
N1369      C1373   1.349       .  A
N1369     Cu1377   2.089       .  S
N1370      C1371   1.343       .  A
N1370     Cu1376   2.071       .  S
C1371      C1372   1.382       .  A
C1371      H1374   1.081       .  S
C1372      C1373   1.388       .  A
C1372      C1634   1.478       .  S
C1373      H1375   1.082       .  S
Cu1376     N1379   2.072       .  S
Cu1377     N1387   2.089       .  S
Cu1378     N1380   2.081       .  S
Cu1378     N1386   2.082       .  S
N1379      N1380   1.322       .  A
N1379      C1383   1.345       .  A
N1380      C1381   1.347       .  A
C1381      C1382   1.385       .  A
C1381      H1384   1.082       .  S
C1382      C1383   1.383       .  A
C1382      C1799   1.475       .  S
C1383      H1385   1.082       .  S
N1386      N1387   1.324       .  A
N1386      C1390   1.346       .  A
N1387      C1388   1.348       .  A
C1388      C1389   1.385       .  A
C1388      H1391   1.082       .  S
C1389      C1390   1.383       .  A
C1389      C1670   1.476       .  S
C1390      H1392   1.082       .  S
N1393      N1394   1.323       .  A
N1393      C1397   1.349       .  A
N1393     Cu1401   2.088       .  S
N1394      C1395   1.346       .  A
N1394     Cu1400   2.081       .  S
C1395      C1396   1.385       .  A
C1395      H1398   1.082       .  S
C1396      C1397   1.387       .  A
C1396      C1601   1.480       .  S
C1397      H1399   1.082       .  S
Cu1400     N1403   2.081       .  S
Cu1401     N1411   2.088       .  S
Cu1402     N1404   2.078       .  S
Cu1402     N1410   2.077       .  S
N1403      N1404   1.322       .  A
N1403      C1407   1.346       .  A
N1404      C1405   1.347       .  A
C1405      C1406   1.384       .  A
C1405      H1408   1.082       .  S
C1406      C1407   1.384       .  A
C1406      C3077   1.476       .  S
C1407      H1409   1.082       .  S
N1410      N1411   1.324       .  A
N1410      C1414   1.346       .  A
N1411      C1412   1.347       .  A
C1412      C1413   1.385       .  A
C1412      H1415   1.082       .  S
C1413      C1414   1.381       .  A
C1413      C1616   1.474       .  S
C1414      H1416   1.082       .  S
N1417      N1418   1.323       .  A
N1417      C1421   1.348       .  A
N1417     Cu1425   2.086       .  S
N1418      C1419   1.345       .  A
N1418     Cu1424   2.078       .  S
C1419      C1420   1.384       .  A
C1419      H1422   1.082       .  S
C1420      C1421   1.386       .  A
C1420      C1583   1.479       .  S
C1421      H1423   1.082       .  S
Cu1424     N1427   2.077       .  S
Cu1425     N1435   2.086       .  S
Cu1426     N1428   2.076       .  S
Cu1426     N1434   2.076       .  S
N1427      N1428   1.322       .  A
N1427      C1431   1.346       .  A
N1428      C1429   1.345       .  A
C1429      C1430   1.383       .  A
C1429      H1432   1.082       .  S
C1430      C1431   1.383       .  A
C1430      C2753   1.472       .  S
C1431      H1433   1.082       .  S
N1434      N1435   1.323       .  A
N1434      C1438   1.345       .  A
N1435      C1436   1.348       .  A
C1436      C1437   1.385       .  A
C1436      H1439   1.082       .  S
C1437      C1438   1.382       .  A
C1437      C1619   1.474       .  S
C1438      H1440   1.082       .  S
N1441      N1442   1.321       .  A
N1441      C1445   1.347       .  A
N1441     Cu1449   2.078       .  S
N1442      C1443   1.344       .  A
N1442     Cu1448   2.069       .  S
C1443      C1444   1.383       .  A
C1443      H1446   1.082   1_455  S
C1444      C1445   1.385       .  A
C1444      C2699   1.474       .  S
C1445      H1447   1.082       .  S
Cu1448     N1451   2.069       .  S
Cu1449     N1459   2.079       .  S
Cu1450     N1452   2.093       .  S
Cu1450     N1458   2.093       .  S
N1451      N1452   1.322       .  A
N1451      C1455   1.343       .  A
N1452      C1453   1.350       .  A
C1453      C1454   1.389       .  A
C1453      H1456   1.082       .  S
C1454      C1455   1.381       .  A
C1454      C1565   1.478       .  S
C1455      H1457   1.081       .  S
N1458      N1459   1.324       .  A
N1458      C1462   1.348       .  A
N1459      C1460   1.346       .  A
C1460      C1461   1.383       .  A
C1460      H1463   1.082       .  S
C1461      C1462   1.386       .  A
C1461      C1637   1.478       .  S
C1462      H1464   1.082       .  S
N1465      N1466   1.323       .  A
N1465      C1469   1.349       .  A
N1465     Cu1473   2.089       .  S
N1466      C1467   1.344       .  A
N1466     Cu1472   2.075       .  S
C1467      C1468   1.383       .  A
C1467      H1470   1.081   1_655  S
C1468      C1469   1.387       .  A
C1468      C1562   1.478       .  S
C1469      H1471   1.082       .  S
Cu1472     N1475   2.075       .  S
Cu1473     N1483   2.089       .  S
Cu1474     N1476   2.076       .  S
Cu1474     N1482   2.078       .  S
N1475      N1476   1.322       .  A
N1475      C1479   1.345   1_655  A
N1476      C1477   1.347       .  A
C1477      C1478   1.383   1_655  A
C1477      H1480   1.082       .  S
C1478      C1479   1.383       .  A
C1478      C2069   1.471       .  S
C1479      H1481   1.082       .  S
N1482      N1483   1.323       .  A
N1482      C1486   1.345       .  A
N1483      C1484   1.348       .  A
C1484      C1485   1.387       .  A
C1484      H1487   1.082       .  S
C1485      C1486   1.384       .  A
C1485      C1598   1.479       .  S
C1486      H1488   1.082       .  S
N1489      N1490   1.320       .  A
N1489      C1493   1.347       .  A
N1489     Cu1497   2.076       .  S
N1490      C1491   1.344       .  A
N1490     Cu1496   2.066       .  S
C1491      C1492   1.382       .  A
C1491      H1494   1.082       .  S
C1492      C1493   1.385       .  A
C1492      C2987   1.471       .  S
C1493      H1495   1.082       .  S
Cu1496     N1499   2.067       .  S
Cu1497     N1507   2.078       .  S
Cu1498     N1500   2.096       .  S
Cu1498     N1506   2.096       .  S
N1499      N1500   1.323       .  A
N1499      C1503   1.343       .  A
N1500      C1501   1.350       .  A
C1501      C1502   1.389       .  A
C1501      H1504   1.082       .  S
C1502      C1503   1.381       .  A
C1502      C1544   1.477       .  S
C1503      H1505   1.082       .  S
N1506      N1507   1.324       .  A
N1506      C1510   1.351       .  A
N1507      C1508   1.343       .  A
C1508      C1509   1.383       .  A
C1508      H1511   1.082       .  S
C1509      C1510   1.388       .  A
C1509      C1652   1.480       .  S
C1510      H1512   1.082       .  S
N1513      N1514   1.322       .  A
N1513      C1517   1.348       .  A
N1513     Cu1521   2.079       .  S
N1514      C1515   1.344       .  A
N1514     Cu1520   2.077       .  S
C1515      C1516   1.384       .  A
C1515      H1518   1.082       .  S
C1516      C1517   1.385       .  A
C1516      C1547   1.477       .  S
C1517      H1519   1.082       .  S
Cu1520     N1523   2.076       .  S
Cu1521     N1531   2.079       .  S
Cu1522     N1524   2.079       .  S
Cu1522     N1530   2.081       .  S
N1523      N1524   1.322       .  A
N1523      C1527   1.345       .  A
N1524      C1525   1.347       .  A
C1525      C1526   1.384       .  A
C1525      H1528   1.082       .  S
C1526      C1527   1.383       .  A
C1526      C1709   1.473       .  S
C1527      H1529   1.082       .  S
N1530      N1531   1.323       .  A
N1530      C1534   1.345       .  A
N1531      C1532   1.347       .  A
C1532      C1533   1.385       .  A
C1532      H1535   1.082       .  S
C1533      C1534   1.384       .  A
C1533      C1580   1.477       .  S
C1534      H1536   1.082       .  S
C1537      N1543   1.345       .  A
C1537      C1542   1.384       .  A
C1537      C1538   1.403   1_565  A
C1538      C1539   1.403       .  A
C1538      H1549   1.082       .  S
C1539      C1548   1.376       .  A
C1539      C1540   1.384       .  A
C1540      N1546   1.346       .  A
C1540      C1541   1.405       .  A
C1541      C1542   1.405   1_545  A
C1541      H1550   1.082       .  S
C1542      C1545   1.378       .  A
N1543      C1544   1.355       .  A
N1543      H1553   1.044       .  S
C1544      C1545   1.398       .  A
C1545      H1551   1.082       .  S
N1546      C1547   1.357       .  A
N1546      H1554   1.044       .  S
C1547      C1548   1.395       .  A
C1548      H1552   1.082       .  S
C1555      N1561   1.343       .  A
C1555      C1560   1.384   1_455  A
C1555      C1556   1.405       .  A
C1556      C1557   1.403   1_545  A
C1556      H1567   1.082       .  S
C1557      C1566   1.381       .  A
C1557      C1558   1.384       .  A
C1558      N1564   1.343       .  A
C1558      C1559   1.406   1_455  A
C1559      C1560   1.404   1_565  A
C1559      H1568   1.082       .  S
C1560      C1563   1.382       .  A
N1561      C1562   1.357   1_455  A
N1561      H1571   1.044       .  S
C1562      C1563   1.397       .  A
C1563      H1569   1.082       .  S
N1564      C1565   1.357       .  A
N1564      H1572   1.044   1_455  S
C1565      C1566   1.396       .  A
C1566      H1570   1.082       .  S
C1573      N1579   1.343       .  A
C1573      C1578   1.384       .  A
C1573      C1574   1.402       .  A
C1574      C1575   1.402       .  A
C1574      H1585   1.082       .  S
C1575      C1584   1.377       .  A
C1575      C1576   1.384       .  A
C1576      N1582   1.347       .  A
C1576      C1577   1.407       .  A
C1577      C1578   1.406       .  A
C1577      H1586   1.082       .  S
C1578      C1581   1.382       .  A
N1579      C1580   1.355       .  A
N1579      H1589   1.044       .  S
C1580      C1581   1.398       .  A
C1581      H1587   1.082       .  S
N1582      C1583   1.358       .  A
N1582      H1590   1.044       .  S
C1583      C1584   1.395       .  A
C1584      H1588   1.082       .  S
C1591      N1597   1.344       .  A
C1591      C1596   1.384       .  A
C1591      C1592   1.404       .  A
C1592      C1593   1.403       .  A
C1592      H1603   1.082       .  S
C1593      C1602   1.378       .  A
C1593      C1594   1.384       .  A
C1594      N1600   1.347       .  A
C1594      C1595   1.407       .  A
C1595      C1596   1.406       .  A
C1595      H1604   1.082       .  S
C1596      C1599   1.382       .  A
N1597      C1598   1.356       .  A
N1597      H1607   1.044       .  S
C1598      C1599   1.398       .  A
C1599      H1605   1.082       .  S
N1600      C1601   1.358       .  A
N1600      H1608   1.044       .  S
C1601      C1602   1.396       .  A
C1602      H1606   1.082       .  S
C1609      N1615   1.346       .  A
C1609      C1614   1.384       .  A
C1609      C1610   1.407       .  A
C1610      C1611   1.406       .  A
C1610      H1621   1.082       .  S
C1611      C1620   1.382       .  A
C1611      C1612   1.385       .  A
C1612      N1618   1.343       .  A
C1612      C1613   1.403       .  A
C1613      C1614   1.402       .  A
C1613      H1622   1.082       .  S
C1614      C1617   1.378       .  A
N1615      C1616   1.357       .  A
N1615      H1625   1.044       .  S
C1616      C1617   1.394       .  A
C1617      H1623   1.082       .  S
N1618      C1619   1.355       .  A
N1618      H1626   1.045       .  S
C1619      C1620   1.397       .  A
C1620      H1624   1.082       .  S
C1627      N1633   1.343       .  A
C1627      C1632   1.384       .  A
C1627      C1628   1.404       .  A
C1628      C1629   1.403       .  A
C1628      H1639   1.082       .  S
C1629      C1638   1.379       .  A
C1629      C1630   1.384       .  A
C1630      N1636   1.345       .  A
C1630      C1631   1.405       .  A
C1631      C1632   1.404       .  A
C1631      H1640   1.082       .  S
C1632      C1635   1.381       .  A
N1633      C1634   1.357       .  A
N1633      H1643   1.044       .  S
C1634      C1635   1.397       .  A
C1635      H1641   1.082       .  S
N1636      C1637   1.356       .  A
N1636      H1644   1.044       .  S
C1637      C1638   1.397       .  A
C1638      H1642   1.082       .  S
C1645      N1651   1.348       .  A
C1645      C1650   1.384       .  A
C1645      C1646   1.408       .  A
C1646      C1647   1.408       .  A
C1646      H1657   1.082       .  S
C1647      C1656   1.384       .  A
C1647      C1648   1.384       .  A
C1648      N1654   1.343       .  A
C1648      C1649   1.402       .  A
C1649      C1650   1.401       .  A
C1649      H1658   1.082       .  S
C1650      C1653   1.376       .  A
N1651      C1652   1.358       .  A
N1651      H1661   1.044       .  S
C1652      C1653   1.396       .  A
C1653      H1659   1.082       .  S
N1654      C1655   1.356       .  A
N1654      H1662   1.044       .  S
C1655      C1656   1.399       .  A
C1656      H1660   1.082       .  S
C1663      N1669   1.345       .  A
C1663      C1668   1.384       .  A
C1663      C1664   1.405       .  A
C1664      C1665   1.404       .  A
C1664      H1675   1.082       .  S
C1665      C1674   1.380       .  A
C1665      C1666   1.384       .  A
C1666      N1672   1.345       .  A
C1666      C1667   1.405       .  A
C1667      C1668   1.405       .  A
C1667      H1676   1.082       .  S
C1668      C1671   1.381       .  A
N1669      C1670   1.356       .  A
N1669      H1679   1.045       .  S
C1670      C1671   1.396       .  A
C1671      H1677   1.082       .  S
N1672      C1673   1.356       .  A
N1672      H1680   1.045       .  S
C1673      C1674   1.396       .  A
C1674      H1678   1.082       .  S
C1681      N1687   1.344       .  A
C1681      C1686   1.384       .  A
C1681      C1682   1.403       .  A
C1682      C1683   1.403       .  A
C1682      H1693   1.082       .  S
C1683      C1692   1.377       .  A
C1683      C1684   1.384       .  A
C1684      N1690   1.345       .  A
C1684      C1685   1.405       .  A
C1685      C1686   1.405       .  A
C1685      H1694   1.082       .  S
C1686      C1689   1.379       .  A
N1687      C1688   1.356       .  A
N1687      H1697   1.044       .  S
C1688      C1689   1.397       .  A
C1689      H1695   1.082       .  S
N1690      C1691   1.357       .  A
N1690      H1698   1.044       .  S
C1691      C1692   1.396       .  A
C1692      H1696   1.082       .  S
C1699      N1705   1.346       .  A
C1699      C1704   1.385       .  A
C1699      C1700   1.406       .  A
C1700      C1701   1.406       .  A
C1700      H1711   1.082       .  S
C1701      C1710   1.381       .  A
C1701      C1702   1.385       .  A
C1702      N1708   1.342       .  A
C1702      C1703   1.401       .  A
C1703      C1704   1.400       .  A
C1703      H1712   1.082       .  S
C1704      C1707   1.374       .  A
N1705      C1706   1.356       .  A
N1705      H1715   1.044       .  S
C1706      C1707   1.393       .  A
C1707      H1713   1.082       .  S
N1708      C1709   1.354       .  A
N1708      H1716   1.045       .  S
C1709      C1710   1.397       .  A
C1710      H1714   1.082       .  S
C1717      N1723   1.340       .  A
C1717      C1722   1.385       .  A
C1717      C1718   1.400       .  A
C1718      C1719   1.399       .  A
C1718      H1729   1.082       .  S
C1719      C1728   1.374       .  A
C1719      C1720   1.384       .  A
C1720      N1726   1.344       .  A
C1720      C1721   1.405       .  A
C1721      C1722   1.403       .  A
C1721      H1730   1.082       .  S
C1722      C1725   1.379       .  A
N1723      C1724   1.354       .  A
N1723      H1733   1.044       .  S
C1724      C1725   1.395       .  A
C1725      H1731   1.082       .  S
N1726      C1727   1.356       .  A
N1726      H1734   1.044       .  S
C1727      C1728   1.394       .  A
C1728      H1732   1.082       .  S
C1735      N1741   1.344       .  A
C1735      C1740   1.385       .  A
C1735      C1736   1.406   1_565  A
C1736      C1737   1.404       .  A
C1736      H1747   1.082       .  S
C1737      C1746   1.381       .  A
C1737      C1738   1.385       .  A
C1738      N1744   1.340       .  A
C1738      C1739   1.401       .  A
C1739      C1740   1.399   1_545  A
C1739      H1748   1.082       .  S
C1740      C1743   1.376       .  A
N1741      C1742   1.356       .  A
N1741      H1751   1.045       .  S
C1742      C1743   1.393       .  A
C1743      H1749   1.082       .  S
N1744      C1745   1.354       .  A
N1744      H1752   1.045       .  S
C1745      C1746   1.396       .  A
C1746      H1750   1.082       .  S
C1753      N1759   1.342       .  A
C1753      C1758   1.384       .  A
C1753      C1754   1.401       .  A
C1754      C1755   1.400       .  A
C1754      H1765   1.082       .  S
C1755      C1764   1.374       .  A
C1755      C1756   1.383       .  A
C1756      N1762   1.349       .  A
C1756      C1757   1.409       .  A
C1757      C1758   1.409       .  A
C1757      H1766   1.082       .  S
C1758      C1761   1.384       .  A
N1759      C1760   1.355       .  A
N1759      H1769   1.044       .  S
C1760      C1761   1.400       .  A
C1761      H1767   1.082       .  S
N1762      C1763   1.359       .  A
N1762      H1770   1.044       .  S
C1763      C1764   1.395       .  A
C1764      H1768   1.082       .  S
C1771      N1777   1.343       .  A
C1771      C1776   1.384       .  A
C1771      C1772   1.403       .  A
C1772      C1773   1.402       .  A
C1772      H1783   1.082       .  S
C1773      C1782   1.376       .  A
C1773      C1774   1.384       .  A
C1774      N1780   1.347       .  A
C1774      C1775   1.408       .  A
C1775      C1776   1.407       .  A
C1775      H1784   1.082       .  S
C1776      C1779   1.384       .  A
N1777      C1778   1.355       .  A
N1777      H1787   1.045       .  S
C1778      C1779   1.397       .  A
C1779      H1785   1.082       .  S
N1780      C1781   1.357       .  A
N1780      H1788   1.045       .  S
C1781      C1782   1.395       .  A
C1782      H1786   1.082       .  S
C1789      N1795   1.345       .  A
C1789      C1794   1.384       .  A
C1789      C1790   1.406       .  A
C1790      C1791   1.405       .  A
C1790      H1801   1.082       .  S
C1791      C1800   1.381       .  A
C1791      C1792   1.384       .  A
C1792      N1798   1.343       .  A
C1792      C1793   1.403       .  A
C1793      C1794   1.402       .  A
C1793      H1802   1.082       .  S
C1794      C1797   1.378       .  A
N1795      C1796   1.358       .  A
N1795      H1805   1.044       .  S
C1796      C1797   1.394       .  A
C1797      H1803   1.082       .  S
N1798      C1799   1.355       .  A
N1798      H1806   1.044       .  S
C1799      C1800   1.397       .  A
C1800      H1804   1.082       .  S
C1807      N1813   1.347       .  A
C1807      C1812   1.384       .  A
C1807      C1808   1.408       .  A
C1808      C1809   1.407       .  A
C1808      H1819   1.082       .  S
C1809      C1818   1.383       .  A
C1809      C1810   1.384       .  A
C1810      N1816   1.344       .  A
C1810      C1811   1.404       .  A
C1811      C1812   1.403       .  A
C1811      H1820   1.082       .  S
C1812      C1815   1.378       .  A
N1813      C1814   1.358       .  A
N1813      H1823   1.044       .  S
C1814      C1815   1.396       .  A
C1815      H1821   1.082       .  S
N1816      C1817   1.356       .  A
N1816      H1824   1.044       .  S
C1817      C1818   1.399       .  A
C1818      H1822   1.082       .  S
C1825      N1831   1.341       .  A
C1825      C1830   1.384       .  A
C1825      C1826   1.399       .  A
C1826      C1827   1.398       .  A
C1826      H1837   1.082       .  S
C1827      C1836   1.371       .  A
C1827      C1828   1.384       .  A
C1828      N1834   1.348       .  A
C1828      C1829   1.408       .  A
C1829      C1830   1.409       .  A
C1829      H1838   1.082       .  S
C1830      C1833   1.383       .  A
N1831      C1832   1.354       .  A
N1831      H1841   1.044       .  S
C1832      C1833   1.399       .  A
C1833      H1839   1.082       .  S
N1834      C1835   1.359       .  A
N1834      H1842   1.044       .  S
C1835      C1836   1.393       .  A
C1836      H1840   1.082       .  S
C1843      N1849   1.345       .  A
C1843      C1848   1.384       .  A
C1843      C1844   1.405       .  A
C1844      C1845   1.404       .  A
C1844      H1855   1.082       .  S
C1845      C1854   1.379       .  A
C1845      C1846   1.384       .  A
C1846      N1852   1.343       .  A
C1846      C1847   1.402       .  A
C1847      C1848   1.401       .  A
C1847      H1856   1.082       .  S
C1848      C1851   1.376       .  A
N1849      C1850   1.357       .  A
N1849      H1859   1.044       .  S
C1850      C1851   1.395       .  A
C1851      H1857   1.082       .  S
N1852      C1853   1.355       .  A
N1852      H1860   1.044       .  S
C1853      C1854   1.397       .  A
C1854      H1858   1.082       .  S
C1861      N1867   1.345       .  A
C1861      C1866   1.384       .  A
C1861      C1862   1.405       .  A
C1862      C1863   1.404       .  A
C1862      H1873   1.082       .  S
C1863      C1872   1.381       .  A
C1863      C1864   1.384       .  A
C1864      N1870   1.345       .  A
C1864      C1865   1.405       .  A
C1865      C1866   1.404       .  A
C1865      H1874   1.082       .  S
C1866      C1869   1.380       .  A
N1867      C1868   1.356       .  A
N1867      H1877   1.044       .  S
C1868      C1869   1.396       .  A
C1869      H1875   1.082       .  S
N1870      C1871   1.356       .  A
N1870      H1878   1.045       .  S
C1871      C1872   1.396       .  A
C1872      H1876   1.082       .  S
C1879      N1885   1.343   1_554  A
C1879      C1884   1.385   1_554  A
C1879      C1880   1.402       .  A
C1880      C1881   1.401       .  A
C1880      H1891   1.082       .  S
C1881      C1890   1.376       .  A
C1881      C1882   1.385       .  A
C1882      N1888   1.345       .  A
C1882      C1883   1.405   1_554  A
C1883      C1884   1.405       .  A
C1883      H1892   1.082       .  S
C1884      C1887   1.379       .  A
N1885      C1886   1.354       .  A
N1885      H1895   1.045   1_556  S
C1886      C1887   1.396       .  A
C1887      H1893   1.082       .  S
N1888      C1889   1.356       .  A
N1888      H1896   1.045       .  S
C1889      C1890   1.393       .  A
C1890      H1894   1.082       .  S
C1897      N1903   1.341       .  A
C1897      C1902   1.384       .  A
C1897      C1898   1.400       .  A
C1898      C1899   1.399       .  A
C1898      H1909   1.082       .  S
C1899      C1908   1.374       .  A
C1899      C1900   1.384       .  A
C1900      N1906   1.347       .  A
C1900      C1901   1.408       .  A
C1901      C1902   1.407       .  A
C1901      H1910   1.082       .  S
C1902      C1905   1.383       .  A
N1903      C1904   1.354       .  A
N1903      H1913   1.044       .  S
C1904      C1905   1.398       .  A
C1905      H1911   1.082       .  S
N1906      C1907   1.359       .  A
N1906      H1914   1.044       .  S
C1907      C1908   1.394       .  A
C1908      H1912   1.082       .  S
C1915      N1921   1.345   1_545  A
C1915      C1920   1.384   1_655  A
C1915      C1916   1.403       .  A
C1916      C1917   1.403   1_554  A
C1916      H1927   1.082   1_554  S
C1917      C1926   1.377       .  A
C1917      C1918   1.384   1_656  A
C1918      N1924   1.344   1_554  A
C1918      C1919   1.403       .  A
C1919      C1920   1.403       .  A
C1919      H1928   1.082       .  S
C1920      C1923   1.377   1_545  A
N1921      C1922   1.356       .  A
N1921      H1931   1.044       .  S
C1922      C1923   1.396   1_655  A
C1923      H1929   1.082       .  S
N1924      C1925   1.356       .  A
N1924      H1932   1.044   1_556  S
C1925      C1926   1.396   1_455  A
C1926      H1930   1.082       .  S
C1933      N1939   1.342       .  A
C1933      C1938   1.384       .  A
C1933      C1934   1.402       .  A
C1934      C1935   1.401       .  A
C1934      H1945   1.082       .  S
C1935      C1944   1.376       .  A
C1935      C1936   1.384       .  A
C1936      N1942   1.345       .  A
C1936      C1937   1.405       .  A
C1937      C1938   1.404       .  A
C1937      H1946   1.082       .  S
C1938      C1941   1.380       .  A
N1939      C1940   1.356       .  A
N1939      H1949   1.044       .  S
C1940      C1941   1.396       .  A
C1941      H1947   1.082       .  S
N1942      C1943   1.356       .  A
N1942      H1950   1.044       .  S
C1943      C1944   1.395       .  A
C1944      H1948   1.082       .  S
C1951      N1957   1.343       .  A
C1951      C1956   1.385   1_556  A
C1951      C1952   1.402       .  A
C1952      C1953   1.401   1_556  A
C1952      H1963   1.082       .  S
C1953      C1962   1.376       .  A
C1953      C1954   1.385       .  A
C1954      N1960   1.345       .  A
C1954      C1955   1.404       .  A
C1955      C1956   1.404       .  A
C1955      H1964   1.082       .  S
C1956      C1959   1.379   1_554  A
N1957      C1958   1.354       .  A
N1957      H1967   1.045       .  S
C1958      C1959   1.395       .  A
C1959      H1965   1.082   1_556  S
N1960      C1961   1.356       .  A
N1960      H1968   1.045       .  S
C1961      C1962   1.394       .  A
C1962      H1966   1.082       .  S
C1969      N1975   1.346       .  A
C1969      C1974   1.384       .  A
C1969      C1970   1.406       .  A
C1970      C1971   1.405       .  A
C1970      H1981   1.082       .  S
C1971      C1980   1.381       .  A
C1971      C1972   1.384       .  A
C1972      N1978   1.342       .  A
C1972      C1973   1.401       .  A
C1973      C1974   1.400       .  A
C1973      H1982   1.082       .  S
C1974      C1977   1.375       .  A
N1975      C1976   1.357       .  A
N1975      H1985   1.044       .  S
C1976      C1977   1.394       .  A
C1977      H1983   1.082       .  S
N1978      C1979   1.355       .  A
N1978      H1986   1.044       .  S
C1979      C1980   1.397       .  A
C1980      H1984   1.082       .  S
C1987      N1993   1.341       .  A
C1987      C1992   1.385       .  A
C1987      C1988   1.401       .  A
C1988      C1989   1.400       .  A
C1988      H1999   1.082       .  S
C1989      C1998   1.375       .  A
C1989      C1990   1.385       .  A
C1990      N1996   1.345       .  A
C1990      C1991   1.406       .  A
C1991      C1992   1.405       .  A
C1991      H2000   1.082       .  S
C1992      C1995   1.382       .  A
N1993      C1994   1.354       .  A
N1993      H2003   1.045       .  S
C1994      C1995   1.396       .  A
C1995      H2001   1.082       .  S
N1996      C1997   1.356       .  A
N1996      H2004   1.044       .  S
C1997      C1998   1.393       .  A
C1998      H2002   1.082       .  S
C2005      N2011   1.346       .  A
C2005      C2010   1.384       .  A
C2005      C2006   1.407       .  A
C2006      C2007   1.406       .  A
C2006      H2017   1.082       .  S
C2007      C2016   1.383       .  A
C2007      C2008   1.384       .  A
C2008      N2014   1.341       .  A
C2008      C2009   1.401       .  A
C2009      C2010   1.399       .  A
C2009      H2018   1.082       .  S
C2010      C2013   1.375       .  A
N2011      C2012   1.358       .  A
N2011      H2021   1.044       .  S
C2012      C2013   1.394       .  A
C2013      H2019   1.082       .  S
N2014      C2015   1.355       .  A
N2014      H2022   1.044       .  S
C2015      C2016   1.398       .  A
C2016      H2020   1.082       .  S
C2023      N2029   1.345       .  A
C2023      C2028   1.384       .  A
C2023      C2024   1.404   1_566  A
C2024      C2025   1.404       .  A
C2024      H2035   1.082   1_545  S
C2025      C2034   1.378       .  A
C2025      C2026   1.384       .  A
C2026      N2032   1.345       .  A
C2026      C2027   1.404   1_554  A
C2027      C2028   1.404   1_545  A
C2027      H2036   1.082       .  S
C2028      C2031   1.378       .  A
N2029      C2030   1.357       .  A
N2029      H2039   1.044       .  S
C2030      C2031   1.397       .  A
C2031      H2037   1.082       .  S
N2032      C2033   1.356       .  A
N2032      H2040   1.044       .  S
C2033      C2034   1.397       .  A
C2034      H2038   1.082       .  S
C2041      N2047   1.344       .  A
C2041      C2046   1.385       .  A
C2041      C2042   1.405       .  A
C2042      C2043   1.404       .  A
C2042      H2053   1.082       .  S
C2043      C2052   1.379       .  A
C2043      C2044   1.385       .  A
C2044      N2050   1.341       .  A
C2044      C2045   1.401       .  A
C2045      C2046   1.400       .  A
C2045      H2054   1.082       .  S
C2046      C2049   1.375       .  A
N2047      C2048   1.356       .  A
N2047      H2057   1.045       .  S
C2048      C2049   1.393       .  A
C2049      H2055   1.082       .  S
N2050      C2051   1.354       .  A
N2050      H2058   1.045       .  S
C2051      C2052   1.396       .  A
C2052      H2056   1.082       .  S
C2059      N2065   1.342       .  A
C2059      C2064   1.384       .  A
C2059      C2060   1.402       .  A
C2060      C2061   1.401       .  A
C2060      H2071   1.082       .  S
C2061      C2070   1.377       .  A
C2061      C2062   1.385       .  A
C2062      N2068   1.345       .  A
C2062      C2063   1.406       .  A
C2063      C2064   1.405       .  A
C2063      H2072   1.082       .  S
C2064      C2067   1.381       .  A
N2065      C2066   1.355       .  A
N2065      H2075   1.045       .  S
C2066      C2067   1.396       .  A
C2067      H2073   1.082       .  S
N2068      C2069   1.356       .  A
N2068      H2076   1.045       .  S
C2069      C2070   1.393       .  A
C2070      H2074   1.082       .  S
C2077      N2083   1.341       .  A
C2077      C2082   1.385       .  A
C2077      C2078   1.400       .  A
C2078      C2079   1.399   1_545  A
C2078      H2089   1.082       .  S
C2079      C2088   1.373       .  A
C2079      C2080   1.385       .  A
C2080      N2086   1.347       .  A
C2080      C2081   1.407   1_565  A
C2081      C2082   1.406       .  A
C2081      H2090   1.082   1_545  S
C2082      C2085   1.381       .  A
N2083      C2084   1.354       .  A
N2083      H2093   1.045       .  S
C2084      C2085   1.397       .  A
C2085      H2091   1.082       .  S
N2086      C2087   1.356       .  A
N2086      H2094   1.045       .  S
C2087      C2088   1.393       .  A
C2088      H2092   1.082       .  S
C2095      N2101   1.344       .  A
C2095      C2100   1.384       .  A
C2095      C2096   1.406       .  A
C2096      C2097   1.404       .  A
C2096      H2107   1.082       .  S
C2097      C2106   1.381       .  A
C2097      C2098   1.384       .  A
C2098      N2104   1.343       .  A
C2098      C2099   1.404       .  A
C2099      C2100   1.403       .  A
C2099      H2108   1.082       .  S
C2100      C2103   1.379       .  A
N2101      C2102   1.356       .  A
N2101      H2111   1.045       .  S
C2102      C2103   1.395       .  A
C2103      H2109   1.082       .  S
N2104      C2105   1.356       .  A
N2104      H2112   1.045       .  S
C2105      C2106   1.396       .  A
C2106      H2110   1.082       .  S
C2113      N2119   1.342       .  A
C2113      C2118   1.384       .  A
C2113      C2114   1.400       .  A
C2114      C2115   1.400       .  A
C2114      H2125   1.082       .  S
C2115      C2124   1.373       .  A
C2115      C2116   1.384       .  A
C2116      N2122   1.346       .  A
C2116      C2117   1.406       .  A
C2117      C2118   1.406       .  A
C2117      H2126   1.082       .  S
C2118      C2121   1.380       .  A
N2119      C2120   1.355       .  A
N2119      H2129   1.044       .  S
C2120      C2121   1.398       .  A
C2121      H2127   1.082       .  S
N2122      C2123   1.357       .  A
N2122      H2130   1.044       .  S
C2123      C2124   1.394       .  A
C2124      H2128   1.082       .  S
C2131      N2137   1.342       .  A
C2131      C2136   1.384       .  A
C2131      C2132   1.403       .  A
C2132      C2133   1.401       .  A
C2132      H2143   1.082       .  S
C2133      C2142   1.377       .  A
C2133      C2134   1.384       .  A
C2134      N2140   1.341       .  A
C2134      C2135   1.402       .  A
C2135      C2136   1.401       .  A
C2135      H2144   1.082       .  S
C2136      C2139   1.377       .  A
N2137      C2138   1.356       .  A
N2137      H2147   1.044       .  S
C2138      C2139   1.395       .  A
C2139      H2145   1.082       .  S
N2140      C2141   1.355       .  A
N2140      H2148   1.044       .  S
C2141      C2142   1.395       .  A
C2142      H2146   1.082       .  S
C2149      N2155   1.347       .  A
C2149      C2154   1.384       .  A
C2149      C2150   1.408       .  A
C2150      C2151   1.407       .  A
C2150      H2161   1.082       .  S
C2151      C2160   1.384       .  A
C2151      C2152   1.384       .  A
C2152      N2158   1.341       .  A
C2152      C2153   1.401       .  A
C2153      C2154   1.400       .  A
C2153      H2162   1.082       .  S
C2154      C2157   1.376       .  A
N2155      C2156   1.358       .  A
N2155      H2165   1.044       .  S
C2156      C2157   1.395       .  A
C2157      H2163   1.082       .  S
N2158      C2159   1.355       .  A
N2158      H2166   1.044       .  S
C2159      C2160   1.399       .  A
C2160      H2164   1.082       .  S
C2167      N2173   1.342       .  A
C2167      C2172   1.385       .  A
C2167      C2168   1.401       .  A
C2168      C2169   1.401       .  A
C2168      H2179   1.082       .  S
C2169      C2178   1.375       .  A
C2169      C2170   1.385       .  A
C2170      N2176   1.347       .  A
C2170      C2171   1.407       .  A
C2171      C2172   1.407       .  A
C2171      H2180   1.082       .  S
C2172      C2175   1.383       .  A
N2173      C2174   1.354       .  A
N2173      H2183   1.045       .  S
C2174      C2175   1.396       .  A
C2175      H2181   1.082       .  S
N2176      C2177   1.356       .  A
N2176      H2184   1.045       .  S
C2177      C2178   1.393       .  A
C2178      H2182   1.082       .  S
C2185      N2191   1.347       .  A
C2185      C2190   1.384       .  A
C2185      C2186   1.407       .  A
C2186      C2187   1.407       .  A
C2186      H2197   1.082       .  S
C2187      C2196   1.381       .  A
C2187      C2188   1.384       .  A
C2188      N2194   1.343       .  A
C2188      C2189   1.402       .  A
C2189      C2190   1.401       .  A
C2189      H2198   1.082       .  S
C2190      C2193   1.376       .  A
N2191      C2192   1.357       .  A
N2191      H2201   1.044       .  S
C2192      C2193   1.394       .  A
C2193      H2199   1.082       .  S
N2194      C2195   1.355       .  A
N2194      H2202   1.045       .  S
C2195      C2196   1.398       .  A
C2196      H2200   1.082       .  S
C2203      N2209   1.339       .  A
C2203      C2208   1.384       .  A
C2203      C2204   1.400       .  A
C2204      C2205   1.398       .  A
C2204      H2215   1.082       .  S
C2205      C2214   1.374       .  A
C2205      C2206   1.384       .  A
C2206      N2212   1.346       .  A
C2206      C2207   1.407       .  A
C2207      C2208   1.406       .  A
C2207      H2216   1.082       .  S
C2208      C2211   1.384       .  A
N2209      C2210   1.354       .  A
N2209      H2219   1.044       .  S
C2210      C2211   1.398       .  A
C2211      H2217   1.082       .  S
N2212      C2213   1.358       .  A
N2212      H2220   1.044       .  S
C2213      C2214   1.393       .  A
C2214      H2218   1.082       .  S
C2221      N2227   1.344       .  A
C2221      C2226   1.384       .  A
C2221      C2222   1.404       .  A
C2222      C2223   1.403       .  A
C2222      H2233   1.082       .  S
C2223      C2232   1.378       .  A
C2223      C2224   1.384       .  A
C2224      N2230   1.347       .  A
C2224      C2225   1.407       .  A
C2225      C2226   1.407       .  A
C2225      H2234   1.082       .  S
C2226      C2229   1.383       .  A
N2227      C2228   1.357       .  A
N2227      H2237   1.044       .  S
C2228      C2229   1.398       .  A
C2229      H2235   1.082       .  S
N2230      C2231   1.357       .  A
N2230      H2238   1.044       .  S
C2231      C2232   1.396       .  A
C2232      H2236   1.082       .  S
C2239      N2245   1.343       .  A
C2239      C2244   1.384       .  A
C2239      C2240   1.405       .  A
C2240      C2241   1.403       .  A
C2240      H2251   1.082       .  S
C2241      C2250   1.379       .  A
C2241      C2242   1.384       .  A
C2242      N2248   1.342       .  A
C2242      C2243   1.402       .  A
C2243      C2244   1.401       .  A
C2243      H2252   1.082       .  S
C2244      C2247   1.378       .  A
N2245      C2246   1.357       .  A
N2245      H2255   1.044       .  S
C2246      C2247   1.394       .  A
C2247      H2253   1.082       .  S
N2248      C2249   1.355       .  A
N2248      H2256   1.044       .  S
C2249      C2250   1.396       .  A
C2250      H2254   1.082       .  S
C2257      N2263   1.344       .  A
C2257      C2262   1.384       .  A
C2257      C2258   1.404       .  A
C2258      C2259   1.403       .  A
C2258      H2269   1.082       .  S
C2259      C2268   1.380       .  A
C2259      C2260   1.384       .  A
C2260      N2266   1.344       .  A
C2260      C2261   1.405       .  A
C2261      C2262   1.403       .  A
C2261      H2270   1.082       .  S
C2262      C2265   1.380       .  A
N2263      C2264   1.356       .  A
N2263      H2273   1.044       .  S
C2264      C2265   1.396       .  A
C2265      H2271   1.082       .  S
N2266      C2267   1.356       .  A
N2266      H2274   1.044       .  S
C2267      C2268   1.395       .  A
C2268      H2272   1.082       .  S
C2275      N2281   1.343       .  A
C2275      C2280   1.384       .  A
C2275      C2276   1.405       .  A
C2276      C2277   1.404       .  A
C2276      H2287   1.082       .  S
C2277      C2286   1.381       .  A
C2277      C2278   1.384       .  A
C2278      N2284   1.343       .  A
C2278      C2279   1.405       .  A
C2279      C2280   1.403       .  A
C2279      H2288   1.082       .  S
C2280      C2283   1.381       .  A
N2281      C2282   1.357       .  A
N2281      H2291   1.044       .  S
C2282      C2283   1.396       .  A
C2283      H2289   1.082       .  S
N2284      C2285   1.356       .  A
N2284      H2292   1.045       .  S
C2285      C2286   1.396       .  A
C2286      H2290   1.082       .  S
C2293      N2299   1.345   1_554  A
C2293      C2298   1.384   1_554  A
C2293      C2294   1.405       .  A
C2294      C2295   1.405       .  A
C2294      H2305   1.082       .  S
C2295      C2304   1.380       .  A
C2295      C2296   1.385       .  A
C2296      N2302   1.344       .  A
C2296      C2297   1.404   1_554  A
C2297      C2298   1.403       .  A
C2297      H2306   1.082       .  S
C2298      C2301   1.378       .  A
N2299      C2300   1.356       .  A
N2299      H2309   1.045   1_556  S
C2300      C2301   1.395       .  A
C2301      H2307   1.082       .  S
N2302      C2303   1.355       .  A
N2302      H2310   1.045       .  S
C2303      C2304   1.396       .  A
C2304      H2308   1.082       .  S
C2311      N2317   1.342       .  A
C2311      C2316   1.384       .  A
C2311      C2312   1.401       .  A
C2312      C2313   1.400       .  A
C2312      H2323   1.082       .  S
C2313      C2322   1.375       .  A
C2313      C2314   1.384       .  A
C2314      N2320   1.347       .  A
C2314      C2315   1.408       .  A
C2315      C2316   1.407       .  A
C2315      H2324   1.082       .  S
C2316      C2319   1.383       .  A
N2317      C2318   1.354       .  A
N2317      H2327   1.044       .  S
C2318      C2319   1.399       .  A
C2319      H2325   1.082       .  S
N2320      C2321   1.358       .  A
N2320      H2328   1.044       .  S
C2321      C2322   1.394       .  A
C2322      H2326   1.082       .  S
C2329      N2335   1.344       .  A
C2329      C2334   1.385       .  A
C2329      C2330   1.404       .  A
C2330      C2331   1.403       .  A
C2330      H2341   1.082       .  S
C2331      C2340   1.379       .  A
C2331      C2332   1.385       .  A
C2332      N2338   1.341       .  A
C2332      C2333   1.402       .  A
C2333      C2334   1.401       .  A
C2333      H2342   1.082       .  S
C2334      C2337   1.376       .  A
N2335      C2336   1.355       .  A
N2335      H2345   1.045       .  S
C2336      C2337   1.394       .  A
C2337      H2343   1.082       .  S
N2338      C2339   1.354       .  A
N2338      H2346   1.045       .  S
C2339      C2340   1.395       .  A
C2340      H2344   1.082       .  S
C2347      N2353   1.343       .  A
C2347      C2352   1.384   1_556  A
C2347      C2348   1.404   1_556  A
C2348      C2349   1.402       .  A
C2348      H2359   1.082   1_554  S
C2349      C2358   1.379       .  A
C2349      C2350   1.384       .  A
C2350      N2356   1.344       .  A
C2350      C2351   1.406       .  A
C2351      C2352   1.404       .  A
C2351      H2360   1.082       .  S
C2352      C2355   1.381   1_554  A
N2353      C2354   1.356       .  A
N2353      H2363   1.044       .  S
C2354      C2355   1.397       .  A
C2355      H2361   1.082   1_556  S
N2356      C2357   1.358       .  A
N2356      H2364   1.044       .  S
C2357      C2358   1.395       .  A
C2358      H2362   1.082       .  S
C2365      N2371   1.344       .  A
C2365      C2370   1.384       .  A
C2365      C2366   1.403       .  A
C2366      C2367   1.403       .  A
C2366      H2377   1.082       .  S
C2367      C2376   1.377       .  A
C2367      C2368   1.384       .  A
C2368      N2374   1.347       .  A
C2368      C2369   1.406       .  A
C2369      C2370   1.406       .  A
C2369      H2378   1.082       .  S
C2370      C2373   1.381       .  A
N2371      C2372   1.357       .  A
N2371      H2381   1.044       .  S
C2372      C2373   1.397       .  A
C2373      H2379   1.082       .  S
N2374      C2375   1.357       .  A
N2374      H2382   1.044       .  S
C2375      C2376   1.396       .  A
C2376      H2380   1.082       .  S
C2383      N2389   1.342       .  A
C2383      C2388   1.385       .  A
C2383      C2384   1.402       .  A
C2384      C2385   1.401       .  A
C2384      H2395   1.082       .  S
C2385      C2394   1.376       .  A
C2385      C2386   1.384       .  A
C2386      N2392   1.346       .  A
C2386      C2387   1.406       .  A
C2387      C2388   1.406       .  A
C2387      H2396   1.082       .  S
C2388      C2391   1.382       .  A
N2389      C2390   1.354       .  A
N2389      H2399   1.045       .  S
C2390      C2391   1.396       .  A
C2391      H2397   1.082       .  S
N2392      C2393   1.356       .  A
N2392      H2400   1.044       .  S
C2393      C2394   1.394       .  A
C2394      H2398   1.082       .  S
C2401      N2407   1.344       .  A
C2401      C2406   1.384   1_556  A
C2401      C2402   1.405   1_556  A
C2402      C2403   1.403       .  A
C2402      H2413   1.082   1_554  S
C2403      C2412   1.380       .  A
C2403      C2404   1.384       .  A
C2404      N2410   1.344       .  A
C2404      C2405   1.405       .  A
C2405      C2406   1.404       .  A
C2405      H2414   1.082   1_455  S
C2406      C2409   1.380   1_454  A
N2407      C2408   1.357       .  A
N2407      H2417   1.044       .  S
C2408      C2409   1.396   1_455  A
C2409      H2415   1.082   1_556  S
N2410      C2411   1.357       .  A
N2410      H2418   1.044       .  S
C2411      C2412   1.396       .  A
C2412      H2416   1.082       .  S
C2419      N2425   1.344       .  A
C2419      C2424   1.384       .  A
C2419      C2420   1.403       .  A
C2420      C2421   1.403       .  A
C2420      H2431   1.082       .  S
C2421      C2430   1.377       .  A
C2421      C2422   1.384       .  A
C2422      N2428   1.347       .  A
C2422      C2423   1.407       .  A
C2423      C2424   1.406       .  A
C2423      H2432   1.082       .  S
C2424      C2427   1.382       .  A
N2425      C2426   1.357       .  A
N2425      H2435   1.044       .  S
C2426      C2427   1.398       .  A
C2427      H2433   1.082       .  S
N2428      C2429   1.357       .  A
N2428      H2436   1.044       .  S
C2429      C2430   1.397       .  A
C2430      H2434   1.082       .  S
C2437      N2443   1.342       .  A
C2437      C2442   1.384       .  A
C2437      C2438   1.402       .  A
C2438      C2439   1.401       .  A
C2438      H2449   1.082       .  S
C2439      C2448   1.375       .  A
C2439      C2440   1.384       .  A
C2440      N2446   1.347       .  A
C2440      C2441   1.407       .  A
C2441      C2442   1.406       .  A
C2441      H2450   1.082       .  S
C2442      C2445   1.382       .  A
N2443      C2444   1.355       .  A
N2443      H2453   1.044       .  S
C2444      C2445   1.398       .  A
C2445      H2451   1.082       .  S
N2446      C2447   1.357       .  A
N2446      H2454   1.044       .  S
C2447      C2448   1.395       .  A
C2448      H2452   1.082       .  S
C2455      N2461   1.344       .  A
C2455      C2460   1.385       .  A
C2455      C2456   1.404   1_556  A
C2456      C2457   1.403       .  A
C2456      H2467   1.082       .  S
C2457      C2466   1.379       .  A
C2457      C2458   1.384       .  A
C2458      N2464   1.345       .  A
C2458      C2459   1.405   1_554  A
C2459      C2460   1.405       .  A
C2459      H2468   1.082       .  S
C2460      C2463   1.380       .  A
N2461      C2462   1.355       .  A
N2461      H2471   1.045       .  S
C2462      C2463   1.396       .  A
C2463      H2469   1.082       .  S
N2464      C2465   1.356       .  A
N2464      H2472   1.045       .  S
C2465      C2466   1.395       .  A
C2466      H2470   1.082       .  S
C2473      N2479   1.345       .  A
C2473      C2478   1.384       .  A
C2473      C2474   1.406       .  A
C2474      C2475   1.404       .  A
C2474      H2485   1.082       .  S
C2475      C2484   1.381       .  A
C2475      C2476   1.384       .  A
C2476      N2482   1.344       .  A
C2476      C2477   1.404       .  A
C2477      C2478   1.403       .  A
C2477      H2486   1.082       .  S
C2478      C2481   1.380       .  A
N2479      C2480   1.357       .  A
N2479      H2489   1.045       .  S
C2480      C2481   1.395       .  A
C2481      H2487   1.082       .  S
N2482      C2483   1.355       .  A
N2482      H2490   1.045       .  S
C2483      C2484   1.396       .  A
C2484      H2488   1.082       .  S
C2491      N2497   1.344       .  A
C2491      C2496   1.384       .  A
C2491      C2492   1.403       .  A
C2492      C2493   1.403       .  A
C2492      H2503   1.082       .  S
C2493      C2502   1.378       .  A
C2493      C2494   1.385       .  A
C2494      N2500   1.344       .  A
C2494      C2495   1.404       .  A
C2495      C2496   1.403       .  A
C2495      H2504   1.082       .  S
C2496      C2499   1.378       .  A
N2497      C2498   1.355       .  A
N2497      H2507   1.044       .  S
C2498      C2499   1.396       .  A
C2499      H2505   1.082       .  S
N2500      C2501   1.356       .  A
N2500      H2508   1.045       .  S
C2501      C2502   1.394       .  A
C2502      H2506   1.082       .  S
C2509      N2515   1.347       .  A
C2509      C2514   1.384       .  A
C2509      C2510   1.408       .  A
C2510      C2511   1.407       .  A
C2510      H2521   1.082       .  S
C2511      C2520   1.383       .  A
C2511      C2512   1.384       .  A
C2512      N2518   1.343       .  A
C2512      C2513   1.403       .  A
C2513      C2514   1.402       .  A
C2513      H2522   1.082       .  S
C2514      C2517   1.377       .  A
N2515      C2516   1.358       .  A
N2515      H2525   1.044       .  S
C2516      C2517   1.396       .  A
C2517      H2523   1.082       .  S
N2518      C2519   1.356       .  A
N2518      H2526   1.044       .  S
C2519      C2520   1.398       .  A
C2520      H2524   1.082       .  S
C2527      N2533   1.343       .  A
C2527      C2532   1.385       .  A
C2527      C2528   1.402       .  A
C2528      C2529   1.401       .  A
C2528      H2539   1.082       .  S
C2529      C2538   1.375       .  A
C2529      C2530   1.384   1_655  A
C2530      N2536   1.345       .  A
C2530      C2531   1.404       .  A
C2531      C2532   1.404   1_455  A
C2531      H2540   1.082       .  S
C2532      C2535   1.377       .  A
N2533      C2534   1.355       .  A
N2533      H2543   1.044       .  S
C2534      C2535   1.396       .  A
C2535      H2541   1.082   1_655  S
N2536      C2537   1.356       .  A
N2536      H2544   1.044       .  S
C2537      C2538   1.395   1_455  A
C2538      H2542   1.082       .  S
C2545      N2551   1.344       .  A
C2545      C2550   1.384       .  A
C2545      C2546   1.406       .  A
C2546      C2547   1.404       .  A
C2546      H2557   1.082       .  S
C2547      C2556   1.382       .  A
C2547      C2548   1.384       .  A
C2548      N2554   1.343       .  A
C2548      C2549   1.404       .  A
C2549      C2550   1.403       .  A
C2549      H2558   1.082       .  S
C2550      C2553   1.380       .  A
N2551      C2552   1.356       .  A
N2551      H2561   1.045       .  S
C2552      C2553   1.395       .  A
C2553      H2559   1.082       .  S
N2554      C2555   1.356       .  A
N2554      H2562   1.044       .  S
C2555      C2556   1.396       .  A
C2556      H2560   1.082       .  S
C2563      N2569   1.341       .  A
C2563      C2568   1.384       .  A
C2563      C2564   1.401       .  A
C2564      C2565   1.400       .  A
C2564      H2575   1.083       .  S
C2565      C2574   1.375       .  A
C2565      C2566   1.384       .  A
C2566      N2572   1.345       .  A
C2566      C2567   1.405       .  A
C2567      C2568   1.404       .  A
C2567      H2576   1.082       .  S
C2568      C2571   1.380       .  A
N2569      C2570   1.355       .  A
N2569      H2579   1.044       .  S
C2570      C2571   1.396       .  A
C2571      H2577   1.082       .  S
N2572      C2573   1.356       .  A
N2572      H2580   1.044       .  S
C2573      C2574   1.395       .  A
C2574      H2578   1.082       .  S
C2581      N2587   1.347       .  A
C2581      C2586   1.384       .  A
C2581      C2582   1.406       .  A
C2582      C2583   1.406       .  A
C2582      H2593   1.082       .  S
C2583      C2592   1.380       .  A
C2583      C2584   1.384       .  A
C2584      N2590   1.346       .  A
C2584      C2585   1.405       .  A
C2585      C2586   1.405       .  A
C2585      H2594   1.082       .  S
C2586      C2589   1.379       .  A
N2587      C2588   1.358       .  A
N2587      H2597   1.044       .  S
C2588      C2589   1.397       .  A
C2589      H2595   1.082       .  S
N2590      C2591   1.357       .  A
N2590      H2598   1.044       .  S
C2591      C2592   1.398       .  A
C2592      H2596   1.082       .  S
C2599      N2605   1.344       .  A
C2599      C2604   1.384       .  A
C2599      C2600   1.404       .  A
C2600      C2601   1.403       .  A
C2600      H2611   1.082       .  S
C2601      C2610   1.379       .  A
C2601      C2602   1.384       .  A
C2602      N2608   1.344       .  A
C2602      C2603   1.404       .  A
C2603      C2604   1.403       .  A
C2603      H2612   1.082       .  S
C2604      C2607   1.378       .  A
N2605      C2606   1.356       .  A
N2605      H2615   1.044       .  S
C2606      C2607   1.395       .  A
C2607      H2613   1.082       .  S
N2608      C2609   1.356       .  A
N2608      H2616   1.044       .  S
C2609      C2610   1.395       .  A
C2610      H2614   1.082       .  S
C2617      N2623   1.342       .  A
C2617      C2622   1.384       .  A
C2617      C2618   1.402       .  A
C2618      C2619   1.401       .  A
C2618      H2629   1.082       .  S
C2619      C2628   1.376       .  A
C2619      C2620   1.384       .  A
C2620      N2626   1.344       .  A
C2620      C2621   1.404       .  A
C2621      C2622   1.403       .  A
C2621      H2630   1.082       .  S
C2622      C2625   1.379       .  A
N2623      C2624   1.355       .  A
N2623      H2633   1.044       .  S
C2624      C2625   1.395       .  A
C2625      H2631   1.082       .  S
N2626      C2627   1.356       .  A
N2626      H2634   1.044       .  S
C2627      C2628   1.395       .  A
C2628      H2632   1.082       .  S
C2635      N2641   1.344       .  A
C2635      C2640   1.385       .  A
C2635      C2636   1.403       .  A
C2636      C2637   1.403       .  A
C2636      H2647   1.082       .  S
C2637      C2646   1.377       .  A
C2637      C2638   1.385       .  A
C2638      N2644   1.344       .  A
C2638      C2639   1.403       .  A
C2639      C2640   1.403       .  A
C2639      H2648   1.082       .  S
C2640      C2643   1.377       .  A
N2641      C2642   1.355       .  A
N2641      H2651   1.044       .  S
C2642      C2643   1.395       .  A
C2643      H2649   1.082       .  S
N2644      C2645   1.355       .  A
N2644      H2652   1.045       .  S
C2645      C2646   1.394       .  A
C2646      H2650   1.082       .  S
C2653      N2659   1.344       .  A
C2653      C2658   1.384       .  A
C2653      C2654   1.403       .  A
C2654      C2655   1.402       .  A
C2654      H2665   1.082       .  S
C2655      C2664   1.377       .  A
C2655      C2656   1.384       .  A
C2656      N2662   1.348       .  A
C2656      C2657   1.408       .  A
C2657      C2658   1.407       .  A
C2657      H2666   1.082       .  S
C2658      C2661   1.383       .  A
N2659      C2660   1.356       .  A
N2659      H2669   1.044       .  S
C2660      C2661   1.397       .  A
C2661      H2667   1.082       .  S
N2662      C2663   1.358       .  A
N2662      H2670   1.044       .  S
C2663      C2664   1.396       .  A
C2664      H2668   1.082       .  S
C2671      N2677   1.345       .  A
C2671      C2676   1.384       .  A
C2671      C2672   1.406       .  A
C2672      C2673   1.405       .  A
C2672      H2683   1.082       .  S
C2673      C2682   1.381       .  A
C2673      C2674   1.384       .  A
C2674      N2680   1.345       .  A
C2674      C2675   1.406       .  A
C2675      C2676   1.405       .  A
C2675      H2684   1.082       .  S
C2676      C2679   1.382       .  A
N2677      C2678   1.357       .  A
N2677      H2687   1.045       .  S
C2678      C2679   1.396       .  A
C2679      H2685   1.082       .  S
N2680      C2681   1.357       .  A
N2680      H2688   1.045       .  S
C2681      C2682   1.396       .  A
C2682      H2686   1.082       .  S
C2689      N2695   1.343       .  A
C2689      C2694   1.385       .  A
C2689      C2690   1.403       .  A
C2690      C2691   1.402       .  A
C2690      H2701   1.082       .  S
C2691      C2700   1.378       .  A
C2691      C2692   1.384       .  A
C2692      N2698   1.345   1_655  A
C2692      C2693   1.406       .  A
C2693      C2694   1.405       .  A
C2693      H2702   1.082   1_655  S
C2694      C2697   1.381       .  A
N2695      C2696   1.355       .  A
N2695      H2705   1.045       .  S
C2696      C2697   1.396       .  A
C2697      H2703   1.082       .  S
N2698      C2699   1.356       .  A
N2698      H2706   1.045       .  S
C2699      C2700   1.395   1_455  A
C2700      H2704   1.082       .  S
C2707      N2713   1.344       .  A
C2707      C2712   1.385       .  A
C2707      C2708   1.404       .  A
C2708      C2709   1.403       .  A
C2708      H2719   1.082       .  S
C2709      C2718   1.379   1_655  A
C2709      C2710   1.385       .  A
C2710      N2716   1.339       .  A
C2710      C2711   1.399       .  A
C2711      C2712   1.398       .  A
C2711      H2720   1.082       .  S
C2712      C2715   1.373       .  A
N2713      C2714   1.355       .  A
N2713      H2723   1.045       .  S
C2714      C2715   1.391       .  A
C2715      H2721   1.082       .  S
N2716      C2717   1.353       .  A
N2716      H2724   1.045       .  S
C2717      C2718   1.395   1_655  A
C2718      H2722   1.082       .  S
C2725      N2731   1.346       .  A
C2725      C2730   1.384       .  A
C2725      C2726   1.405   1_565  A
C2726      C2727   1.404       .  A
C2726      H2737   1.082       .  S
C2727      C2736   1.380       .  A
C2727      C2728   1.384       .  A
C2728      N2734   1.346       .  A
C2728      C2729   1.406       .  A
C2729      C2730   1.406   1_545  A
C2729      H2738   1.082   1_545  S
C2730      C2733   1.381       .  A
N2731      C2732   1.356       .  A
N2731      H2741   1.045       .  S
C2732      C2733   1.397       .  A
C2733      H2739   1.082       .  S
N2734      C2735   1.358       .  A
N2734      H2742   1.044       .  S
C2735      C2736   1.396       .  A
C2736      H2740   1.082       .  S
C2743      N2749   1.343       .  A
C2743      C2748   1.385       .  A
C2743      C2744   1.402       .  A
C2744      C2745   1.401       .  A
C2744      H2755   1.082       .  S
C2745      C2754   1.377       .  A
C2745      C2746   1.384       .  A
C2746      N2752   1.345       .  A
C2746      C2747   1.405       .  A
C2747      C2748   1.404       .  A
C2747      H2756   1.082       .  S
C2748      C2751   1.380       .  A
N2749      C2750   1.355       .  A
N2749      H2759   1.045       .  S
C2750      C2751   1.396       .  A
C2751      H2757   1.082       .  S
N2752      C2753   1.356       .  A
N2752      H2760   1.045       .  S
C2753      C2754   1.394       .  A
C2754      H2758   1.082       .  S
C2761      N2767   1.345       .  A
C2761      C2766   1.384       .  A
C2761      C2762   1.406       .  A
C2762      C2763   1.405       .  A
C2762      H2773   1.082       .  S
C2763      C2772   1.381       .  A
C2763      C2764   1.384       .  A
C2764      N2770   1.343       .  A
C2764      C2765   1.403       .  A
C2765      C2766   1.402       .  A
C2765      H2774   1.082       .  S
C2766      C2769   1.378       .  A
N2767      C2768   1.357       .  A
N2767      H2777   1.044       .  S
C2768      C2769   1.395       .  A
C2769      H2775   1.082       .  S
N2770      C2771   1.355       .  A
N2770      H2778   1.045       .  S
C2771      C2772   1.397       .  A
C2772      H2776   1.082       .  S
C2779      N2785   1.340       .  A
C2779      C2784   1.384       .  A
C2779      C2780   1.400       .  A
C2780      C2781   1.399       .  A
C2780      H2791   1.083       .  S
C2781      C2790   1.372       .  A
C2781      C2782   1.384       .  A
C2782      N2788   1.348       .  A
C2782      C2783   1.408       .  A
C2783      C2784   1.408       .  A
C2783      H2792   1.082       .  S
C2784      C2787   1.383       .  A
N2785      C2786   1.355       .  A
N2785      H2795   1.044       .  S
C2786      C2787   1.398       .  A
C2787      H2793   1.082       .  S
N2788      C2789   1.358       .  A
N2788      H2796   1.044       .  S
C2789      C2790   1.395       .  A
C2790      H2794   1.082       .  S
C2797      N2803   1.344       .  A
C2797      C2802   1.384       .  A
C2797      C2798   1.405       .  A
C2798      C2799   1.403       .  A
C2798      H2809   1.082       .  S
C2799      C2808   1.379       .  A
C2799      C2800   1.384       .  A
C2800      N2806   1.345       .  A
C2800      C2801   1.405       .  A
C2801      C2802   1.404       .  A
C2801      H2810   1.082       .  S
C2802      C2805   1.380       .  A
N2803      C2804   1.357       .  A
N2803      H2813   1.044       .  S
C2804      C2805   1.397       .  A
C2805      H2811   1.082       .  S
N2806      C2807   1.357       .  A
N2806      H2814   1.044       .  S
C2807      C2808   1.396       .  A
C2808      H2812   1.082       .  S
C2815      N2821   1.347       .  A
C2815      C2820   1.384       .  A
C2815      C2816   1.408       .  A
C2816      C2817   1.407       .  A
C2816      H2827   1.082       .  S
C2817      C2826   1.384       .  A
C2817      C2818   1.384       .  A
C2818      N2824   1.341       .  A
C2818      C2819   1.401       .  A
C2819      C2820   1.400       .  A
C2819      H2828   1.082       .  S
C2820      C2823   1.375       .  A
N2821      C2822   1.357       .  A
N2821      H2831   1.044       .  S
C2822      C2823   1.393       .  A
C2823      H2829   1.082       .  S
N2824      C2825   1.354       .  A
N2824      H2832   1.045       .  S
C2825      C2826   1.397       .  A
C2826      H2830   1.082       .  S
C2833      N2839   1.347       .  A
C2833      C2838   1.384       .  A
C2833      C2834   1.408       .  A
C2834      C2835   1.407       .  A
C2834      H2845   1.082       .  S
C2835      C2844   1.384       .  A
C2835      C2836   1.384       .  A
C2836      N2842   1.342       .  A
C2836      C2837   1.402       .  A
C2837      C2838   1.401       .  A
C2837      H2846   1.082       .  S
C2838      C2841   1.376       .  A
N2839      C2840   1.357       .  A
N2839      H2849   1.044       .  S
C2840      C2841   1.394       .  A
C2841      H2847   1.082       .  S
N2842      C2843   1.355       .  A
N2842      H2850   1.045       .  S
C2843      C2844   1.397       .  A
C2844      H2848   1.082       .  S
C2851      N2857   1.347       .  A
C2851      C2856   1.384       .  A
C2851      C2852   1.406       .  A
C2852      C2853   1.406       .  A
C2852      H2863   1.082       .  S
C2853      C2862   1.380       .  A
C2853      C2854   1.384       .  A
C2854      N2860   1.341       .  A
C2854      C2855   1.399       .  A
C2855      C2856   1.399       .  A
C2855      H2864   1.083       .  S
C2856      C2859   1.371       .  A
N2857      C2858   1.357       .  A
N2857      H2867   1.044       .  S
C2858      C2859   1.394       .  A
C2859      H2865   1.082       .  S
N2860      C2861   1.354       .  A
N2860      H2868   1.044       .  S
C2861      C2862   1.398       .  A
C2862      H2866   1.082       .  S
C2869      N2875   1.346       .  A
C2869      C2874   1.384       .  A
C2869      C2870   1.406       .  A
C2870      C2871   1.405       .  A
C2870      H2881   1.082       .  S
C2871      C2880   1.381       .  A
C2871      C2872   1.384       .  A
C2872      N2878   1.343       .  A
C2872      C2873   1.403       .  A
C2873      C2874   1.402       .  A
C2873      H2882   1.082       .  S
C2874      C2877   1.377       .  A
N2875      C2876   1.357       .  A
N2875      H2885   1.044       .  S
C2876      C2877   1.394       .  A
C2877      H2883   1.082       .  S
N2878      C2879   1.355       .  A
N2878      H2886   1.045       .  S
C2879      C2880   1.397       .  A
C2880      H2884   1.082       .  S
C2887      N2893   1.346       .  A
C2887      C2892   1.384       .  A
C2887      C2888   1.406       .  A
C2888      C2889   1.406       .  A
C2888      H2899   1.082       .  S
C2889      C2898   1.381       .  A
C2889      C2890   1.384       .  A
C2890      N2896   1.343       .  A
C2890      C2891   1.402       .  A
C2891      C2892   1.402       .  A
C2891      H2900   1.082       .  S
C2892      C2895   1.377       .  A
N2893      C2894   1.357       .  A
N2893      H2903   1.044       .  S
C2894      C2895   1.394       .  A
C2895      H2901   1.082       .  S
N2896      C2897   1.355       .  A
N2896      H2904   1.045       .  S
C2897      C2898   1.398       .  A
C2898      H2902   1.082       .  S
C2905      N2911   1.347       .  A
C2905      C2910   1.384       .  A
C2905      C2906   1.407       .  A
C2906      C2907   1.406       .  A
C2906      H2917   1.082       .  S
C2907      C2916   1.382       .  A
C2907      C2908   1.384       .  A
C2908      N2914   1.342       .  A
C2908      C2909   1.401       .  A
C2909      C2910   1.400       .  A
C2909      H2918   1.082       .  S
C2910      C2913   1.374       .  A
N2911      C2912   1.357       .  A
N2911      H2921   1.044       .  S
C2912      C2913   1.394       .  A
C2913      H2919   1.082       .  S
N2914      C2915   1.355       .  A
N2914      H2922   1.044       .  S
C2915      C2916   1.398       .  A
C2916      H2920   1.082       .  S
C2923      N2929   1.344       .  A
C2923      C2928   1.385       .  A
C2923      C2924   1.403       .  A
C2924      C2925   1.403       .  A
C2924      H2935   1.082       .  S
C2925      C2934   1.376       .  A
C2925      C2926   1.385       .  A
C2926      N2932   1.345       .  A
C2926      C2927   1.404       .  A
C2927      C2928   1.403       .  A
C2927      H2936   1.082       .  S
C2928      C2931   1.377       .  A
N2929      C2930   1.355       .  A
N2929      H2939   1.045       .  S
C2930      C2931   1.395       .  A
C2931      H2937   1.082       .  S
N2932      C2933   1.355       .  A
N2932      H2940   1.045       .  S
C2933      C2934   1.394       .  A
C2934      H2938   1.082       .  S
C2941      N2947   1.341       .  A
C2941      C2946   1.384       .  A
C2941      C2942   1.401       .  A
C2942      C2943   1.400       .  A
C2942      H2953   1.082       .  S
C2943      C2952   1.374       .  A
C2943      C2944   1.384       .  A
C2944      N2950   1.347       .  A
C2944      C2945   1.408       .  A
C2945      C2946   1.407       .  A
C2945      H2954   1.082       .  S
C2946      C2949   1.383       .  A
N2947      C2948   1.355       .  A
N2947      H2957   1.044       .  S
C2948      C2949   1.398       .  A
C2949      H2955   1.082       .  S
N2950      C2951   1.358       .  A
N2950      H2958   1.044       .  S
C2951      C2952   1.394       .  A
C2952      H2956   1.082       .  S
C2959      N2965   1.343       .  A
C2959      C2964   1.384       .  A
C2959      C2960   1.403       .  A
C2960      C2961   1.402       .  A
C2960      H2971   1.082       .  S
C2961      C2970   1.377       .  A
C2961      C2962   1.384       .  A
C2962      N2968   1.344       .  A
C2962      C2963   1.405       .  A
C2963      C2964   1.404       .  A
C2963      H2972   1.082       .  S
C2964      C2967   1.379       .  A
N2965      C2966   1.356       .  A
N2965      H2975   1.044       .  S
C2966      C2967   1.396       .  A
C2967      H2973   1.082       .  S
N2968      C2969   1.357       .  A
N2968      H2976   1.044       .  S
C2969      C2970   1.395       .  A
C2970      H2974   1.082       .  S
C2977      N2983   1.346       .  A
C2977      C2982   1.384       .  A
C2977      C2978   1.406       .  A
C2978      C2979   1.406       .  A
C2978      H2989   1.082       .  S
C2979      C2988   1.381       .  A
C2979      C2980   1.385       .  A
C2980      N2986   1.342       .  A
C2980      C2981   1.402       .  A
C2981      C2982   1.401       .  A
C2981      H2990   1.082       .  S
C2982      C2985   1.376       .  A
N2983      C2984   1.357       .  A
N2983      H2993   1.044       .  S
C2984      C2985   1.394       .  A
C2985      H2991   1.082       .  S
N2986      C2987   1.354       .  A
N2986      H2994   1.045       .  S
C2987      C2988   1.396       .  A
C2988      H2992   1.082       .  S
C2995      N3001   1.347       .  A
C2995      C3000   1.384       .  A
C2995      C2996   1.408       .  A
C2996      C2997   1.407       .  A
C2996      H3007   1.082       .  S
C2997      C3006   1.383       .  A
C2997      C2998   1.385       .  A
C2998      N3004   1.340       .  A
C2998      C2999   1.400       .  A
C2999      C3000   1.399       .  A
C2999      H3008   1.082       .  S
C3000      C3003   1.374       .  A
N3001      C3002   1.357       .  A
N3001      H3011   1.044       .  S
C3002      C3003   1.392       .  A
C3003      H3009   1.082       .  S
N3004      C3005   1.353       .  A
N3004      H3012   1.045       .  S
C3005      C3006   1.397       .  A
C3006      H3010   1.082       .  S
C3013      N3019   1.344       .  A
C3013      C3018   1.384       .  A
C3013      C3014   1.405   1_545  A
C3014      C3015   1.404       .  A
C3014      H3025   1.082   1_565  S
C3015      C3024   1.380       .  A
C3015      C3016   1.384       .  A
C3016      N3022   1.344       .  A
C3016      C3017   1.404       .  A
C3017      C3018   1.403   1_565  A
C3017      H3026   1.082       .  S
C3018      C3021   1.380       .  A
N3019      C3020   1.357       .  A
N3019      H3029   1.044       .  S
C3020      C3021   1.395       .  A
C3021      H3027   1.082       .  S
N3022      C3023   1.355       .  A
N3022      H3030   1.045       .  S
C3023      C3024   1.397       .  A
C3024      H3028   1.082       .  S
C3031      N3037   1.343       .  A
C3031      C3036   1.384       .  A
C3031      C3032   1.403       .  A
C3032      C3033   1.402       .  A
C3032      H3043   1.082       .  S
C3033      C3042   1.379       .  A
C3033      C3034   1.384       .  A
C3034      N3040   1.344       .  A
C3034      C3035   1.405       .  A
C3035      C3036   1.404       .  A
C3035      H3044   1.082       .  S
C3036      C3039   1.381       .  A
N3037      C3038   1.355       .  A
N3037      H3047   1.045       .  S
C3038      C3039   1.396       .  A
C3039      H3045   1.082       .  S
N3040      C3041   1.356       .  A
N3040      H3048   1.045       .  S
C3041      C3042   1.394       .  A
C3042      H3046   1.082       .  S
C3049      N3055   1.342       .  A
C3049      C3054   1.384       .  A
C3049      C3050   1.403       .  A
C3050      C3051   1.402       .  A
C3050      H3061   1.082       .  S
C3051      C3060   1.377       .  A
C3051      C3052   1.384       .  A
C3052      N3058   1.347       .  A
C3052      C3053   1.407       .  A
C3053      C3054   1.407       .  A
C3053      H3062   1.082       .  S
C3054      C3057   1.383       .  A
N3055      C3056   1.356       .  A
N3055      H3065   1.044       .  S
C3056      C3057   1.398       .  A
C3057      H3063   1.082       .  S
N3058      C3059   1.358       .  A
N3058      H3066   1.044       .  S
C3059      C3060   1.396       .  A
C3060      H3064   1.082       .  S
C3067      N3073   1.345       .  A
C3067      C3072   1.384       .  A
C3067      C3068   1.406       .  A
C3068      C3069   1.405       .  A
C3068      H3079   1.082       .  S
C3069      C3078   1.382       .  A
C3069      C3070   1.384       .  A
C3070      N3076   1.343       .  A
C3070      C3071   1.404       .  A
C3071      C3072   1.403       .  A
C3071      H3080   1.082       .  S
C3072      C3075   1.379       .  A
N3073      C3074   1.357       .  A
N3073      H3083   1.044       .  S
C3074      C3075   1.395       .  A
C3075      H3081   1.082       .  S
N3076      C3077   1.355       .  A
N3076      H3084   1.045       .  S
C3077      C3078   1.397       .  A
C3078      H3082   1.082       .  S
C3085      N3091   1.343       .  A
C3085      C3090   1.384       .  A
C3085      C3086   1.403       .  A
C3086      C3087   1.402       .  A
C3086      H3097   1.082       .  S
C3087      C3096   1.379       .  A
C3087      C3088   1.384       .  A
C3088      N3094   1.343       .  A
C3088      C3089   1.404       .  A
C3089      C3090   1.403       .  A
C3089      H3098   1.082       .  S
C3090      C3093   1.379       .  A
N3091      C3092   1.356       .  A
N3091      H3101   1.044       .  S
C3092      C3093   1.396       .  A
C3093      H3099   1.082       .  S
N3094      C3095   1.357       .  A
N3094      H3102   1.044       .  S
C3095      C3096   1.395       .  A
C3096      H3100   1.082       .  S
C3103      N3109   1.345       .  A
C3103      C3108   1.384       .  A
C3103      C3104   1.405       .  A
C3104      C3105   1.404       .  A
C3104      H3115   1.082       .  S
C3105      C3114   1.379   1_655  A
C3105      C3106   1.384       .  A
C3106      N3112   1.344       .  A
C3106      C3107   1.404       .  A
C3107      C3108   1.403       .  A
C3107      H3116   1.082       .  S
C3108      C3111   1.379       .  A
N3109      C3110   1.356       .  A
N3109      H3119   1.044       .  S
C3110      C3111   1.396       .  A
C3111      H3117   1.082       .  S
N3112      C3113   1.356   1_655  A
N3112      H3120   1.044       .  S
C3113      C3114   1.396       .  A
C3114      H3118   1.082       .  S
C3121      N3127   1.341       .  A
C3121      C3126   1.385       .  A
C3121      C3122   1.400       .  A
C3122      C3123   1.400       .  A
C3122      H3133   1.082       .  S
C3123      C3132   1.374       .  A
C3123      C3124   1.385       .  A
C3124      N3130   1.345       .  A
C3124      C3125   1.405       .  A
C3125      C3126   1.404       .  A
C3125      H3134   1.082       .  S
C3126      C3129   1.380       .  A
N3127      C3128   1.353       .  A
N3127      H3137   1.045       .  S
C3128      C3129   1.395       .  A
C3129      H3135   1.082       .  S
N3130      C3131   1.356       .  A
N3130      H3138   1.045   1_655  S
C3131      C3132   1.392       .  A
C3132      H3136   1.082       .  S
C3139      N3145   1.349       .  A
C3139      C3144   1.384       .  A
C3139      C3140   1.409       .  A
C3140      C3141   1.409       .  A
C3140      H3151   1.082       .  S
C3141      C3150   1.384       .  A
C3141      C3142   1.384       .  A
C3142      N3148   1.341       .  A
C3142      C3143   1.399       .  A
C3143      C3144   1.399       .  A
C3143      H3152   1.082       .  S
C3144      C3147   1.373       .  A
N3145      C3146   1.359       .  A
N3145      H3155   1.044       .  S
C3146      C3147   1.394       .  A
C3147      H3153   1.082       .  S
N3148      C3149   1.354       .  A
N3148      H3156   1.044       .  S
C3149      C3150   1.400       .  A
C3150      H3154   1.082       .  S
C3157      N3163   1.344       .  A
C3157      C3162   1.384       .  A
C3157      C3158   1.405       .  A
C3158      C3159   1.404       .  A
C3158      H3169   1.082       .  S
C3159      C3168   1.380       .  A
C3159      C3160   1.384       .  A
C3160      N3166   1.345       .  A
C3160      C3161   1.406       .  A
C3161      C3162   1.405       .  A
C3161      H3170   1.082       .  S
C3162      C3165   1.382       .  A
N3163      C3164   1.356       .  A
N3163      H3173   1.045       .  S
C3164      C3165   1.396       .  A
C3165      H3171   1.082       .  S
N3166      C3167   1.357       .  A
N3166      H3174   1.045       .  S
C3167      C3168   1.395       .  A
C3168      H3172   1.082       .  S
C3175      N3181   1.344       .  A
C3175      C3180   1.384       .  A
C3175      C3176   1.404       .  A
C3176      C3177   1.404       .  A
C3176      H3187   1.082       .  S
C3177      C3186   1.378       .  A
C3177      C3178   1.385       .  A
C3178      N3184   1.342       .  A
C3178      C3179   1.402       .  A
C3179      C3180   1.401       .  A
C3179      H3188   1.082       .  S
C3180      C3183   1.376       .  A
N3181      C3182   1.356       .  A
N3181      H3191   1.045       .  S
C3182      C3183   1.394       .  A
C3183      H3189   1.082       .  S
N3184      C3185   1.354       .  A
N3184      H3192   1.045       .  S
C3185      C3186   1.396       .  A
C3186      H3190   1.082       .  S
C3193      N3199   1.342       .  A
C3193      C3198   1.384       .  A
C3193      C3194   1.402       .  A
C3194      C3195   1.401       .  A
C3194      H3205   1.082       .  S
C3195      C3204   1.376       .  A
C3195      C3196   1.383       .  A
C3196      N3202   1.348       .  A
C3196      C3197   1.409       .  A
C3197      C3198   1.408       .  A
C3197      H3206   1.082       .  S
C3198      C3201   1.384       .  A
N3199      C3200   1.355       .  A
N3199      H3209   1.044       .  S
C3200      C3201   1.399       .  A
C3201      H3207   1.082       .  S
N3202      C3203   1.359       .  A
N3202      H3210   1.044       .  S
C3203      C3204   1.396       .  A
C3204      H3208   1.082       .  S
C3211      N3217   1.343       .  A
C3211      C3216   1.385       .  A
C3211      C3212   1.402       .  A
C3212      C3213   1.402       .  A
C3212      H3223   1.082       .  S
C3213      C3222   1.376       .  A
C3213      C3214   1.384       .  A
C3214      N3220   1.345       .  A
C3214      C3215   1.405       .  A
C3215      C3216   1.404       .  A
C3215      H3224   1.082       .  S
C3216      C3219   1.379       .  A
N3217      C3218   1.354       .  A
N3217      H3227   1.045       .  S
C3218      C3219   1.396       .  A
C3219      H3225   1.082       .  S
N3220      C3221   1.356       .  A
N3220      H3228   1.044       .  S
C3221      C3222   1.395       .  A
C3222      H3226   1.082       .  S
C3229      N3235   1.348       .  A
C3229      C3234   1.383       .  A
C3229      C3230   1.409       .  A
C3230      C3231   1.408       .  A
C3230      H3241   1.082       .  S
C3231      C3240   1.385       .  A
C3231      C3232   1.384       .  A
C3232      N3238   1.343       .  A
C3232      C3233   1.403       .  A
C3233      C3234   1.402       .  A
C3233      H3242   1.082       .  S
C3234      C3237   1.378       .  A
N3235      C3236   1.359       .  A
N3235      H3245   1.044       .  S
C3236      C3237   1.395       .  A
C3237      H3243   1.082       .  S
N3238      C3239   1.356       .  A
N3238      H3246   1.044       .  S
C3239      C3240   1.399       .  A
C3240      H3244   1.082       .  S
C3247      N3253   1.343       .  A
C3247      C3252   1.384       .  A
C3247      C3248   1.402       .  A
C3248      C3249   1.401       .  A
C3248      H3259   1.082       .  S
C3249      C3258   1.377       .  A
C3249      C3250   1.384       .  A
C3250      N3256   1.344       .  A
C3250      C3251   1.405       .  A
C3251      C3252   1.404       .  A
C3251      H3260   1.082       .  S
C3252      C3255   1.380       .  A
N3253      C3254   1.356       .  A
N3253      H3263   1.044       .  S
C3254      C3255   1.396       .  A
C3255      H3261   1.082       .  S
N3256      C3257   1.357       .  A
N3256      H3264   1.044       .  S
C3257      C3258   1.395       .  A
C3258      H3262   1.082       .  S
