geometry optimzed in LAMMPS
_audit_creation_date              2020-11-30 
_audit_creation_method            'lammps2cif' 
_symmetry_space_group_name_H-M    'P1' 
_symmetry_Int_Tables_number       1 
_symmetry_cell_setting            triclinic 
loop_ 
_symmetry_equiv_pos_as_xyz 
  x,y,z 
_cell_length_a                    31.703809829497754 
_cell_length_b                    31.814578144220526 
_cell_length_c                    25.54199368362307 
_cell_angle_alpha                 90.54153047875475 
_cell_angle_beta                  90.1915833949787 
_cell_angle_gamma                 119.86598391679702 
loop_ 
_atom_site_label 
_atom_site_type_symbol 
_atom_site_fract_x 
_atom_site_fract_y 
_atom_site_fract_z 
_atom_site_charge 
C1          C  0.82628171  0.82442772  0.76387318     0.42140
N2          N  0.80479616  0.74906886  0.76321645     0.01030
C3          C  0.94259096  0.65149790  0.85845210    -0.06850
H4          H  0.02320829  0.77071535  0.71312207     0.06520
C5          C  0.88923366  0.66562703  0.58531050    -0.07200
Co6        Co  0.87350257  0.72933980  0.82358023     0.74180
N7          N  0.95610260  0.74579872  0.75498080    -0.26380
Co8        Co  0.91808500  0.67094401  0.74562937     0.74070
C9          C  0.94254749  0.69190190  0.58464963     0.42240
N10         N  0.78266538  0.65985693  0.64180589     0.00640
N11         N  0.91833720  0.67736757  0.66424509     0.00750
N12         N  0.91247211  0.68973344  0.90678379    -0.47220
H13         H  0.89543972  0.84415349  0.81237354     0.06510
N14         N  0.93895372  0.76822135  0.78418869     0.01040
N15         N  0.87770738  0.59600194  0.73592551     0.00780
C16         C  0.85602861  0.52030187  0.73408375     0.42380
N17         N  0.76559427  0.68059399  0.67370974    -0.25830
C18         C  0.79743273  0.69067109  0.91255581    -0.06750
N19         N  0.79122507  0.78012833  0.74766113    -0.46940
N20         N  0.89026970  0.56434104  0.75217246    -0.47160
C21         C  0.74453412  0.66832970  0.91504677     0.42150
N22         N  0.90033967  0.68771121  0.85686165     0.00840
N23         N  0.72818740  0.59965141  0.74423618    -0.25850
N24         N  0.84635370  0.77011213  0.78931285    -0.26350
N25         N  0.74423373  0.57756677  0.71288175     0.00660
H26         H  0.66384653  0.57506790  0.79021086     0.06550
H27         H  0.78872306  0.50208725  0.68268335     0.06590
N28         N  0.91812022  0.66605996  0.82736495    -0.26400
N29         N  0.87759515  0.65789490  0.63636672    -0.26010
N30         N  0.76584891  0.66885056  0.83514524     0.01030
C31         C  0.00811372  0.82476093  0.75848030     0.42420
C32         C  0.74619324  0.70210670  0.64572068    -0.07260
N33         N  0.83728446  0.57570580  0.70759766    -0.26010
H34         H  0.86374656  0.65218307  0.55280966     0.06570
N35         N  0.96909607  0.81555147  0.78763176    -0.47230
H36         H  0.72905375  0.72131417  0.66195154     0.06560
C37         C  0.67512087  0.52101955  0.73940849     0.42260
C38         C  0.86299007  0.81788328  0.79163156    -0.06760
Co39       Co  0.76553954  0.67431120  0.75420525     0.73820
N40         N  0.77529474  0.66579531  0.59182882    -0.46950
C41         C  0.93858922  0.66694101  0.91160743     0.42530
N42         N  0.72767943  0.65627572  0.86541370    -0.46940
Co43       Co  0.81010068  0.61718294  0.67333967     0.73890
C44         C  0.82067675  0.52785456  0.70447309    -0.07270
C45         C  0.99983659  0.77853797  0.73709077    -0.06830
N46         N  0.80722998  0.69022981  0.86163497    -0.26360
N47         N  0.95779613  0.69762313  0.63488934    -0.47120
H48         H  0.96543720  0.63738226  0.84484340     0.06530
C49         C  0.68512847  0.56693093  0.76341169    -0.07240
Cl50       Cl  0.84178075  0.67273734  0.74914395    -0.50240
C51         C  0.75207408  0.69196237  0.59144263     0.42290
H52         H  0.82419919  0.71042868  0.94287380     0.06500
N53         N  0.71350401  0.53033038  0.70888333    -0.46950
C54         C  0.94354761  0.26126271  0.58789038     0.42140
N55         N  0.92259813  0.24531811  0.66816161     0.01030
C56         C  0.78456224  0.01378183  0.76890465    -0.06850
H57         H  0.69052738  0.04609190  0.64519725     0.06520
C58         C  0.72560173  0.20433044  0.77929807    -0.07200
Co59       Co  0.87146155  0.13819922  0.68469795     0.74180
N60         N  0.76455947  0.09606111  0.66914488    -0.26380
Co61       Co  0.76416367  0.09913797  0.75145040     0.74070
C62         C  0.68322312  0.17132946  0.74754183     0.42240
N63         N  0.84832434  0.27361601  0.77963107     0.00640
N64         N  0.73239493  0.14315066  0.75326142     0.00750
N65         N  0.85620275  0.04246688  0.72663504    -0.47220
H66         H  0.90367664  0.18026398  0.56532370     0.06510
N67         N  0.80622199  0.11252232  0.64435956     0.01040
N68         N  0.76571219  0.10124403  0.83327289     0.00780
C69         C  0.75218215  0.07939734  0.91334616     0.42380
N70         N  0.88816492  0.28861713  0.75168097    -0.25830
C71         C  0.96609160  0.14533841  0.72971872    -0.06750
N72         N  0.94911748  0.28144328  0.63605681    -0.46940
N73         N  0.74432721  0.06274267  0.86358449    -0.47160
C74         C  0.00793752  0.18148890  0.75999636     0.42150
N75         N  0.84049609  0.07392986  0.72606540     0.01020
N76         N  0.92531339  0.25040014  0.82963131    -0.25850
N77         N  0.90199827  0.20271218  0.64426350    -0.26350
N78         N  0.88653399  0.23566998  0.85906495     0.00660
H79         H  0.00172452  0.28775279  0.84433451     0.06550
H80         H  0.79333613  0.15857063  0.94332949     0.06590
N81         N  0.79875804  0.05814729  0.75045643    -0.26400
N82         N  0.75336494  0.18384325  0.78093896    -0.26010
N83         N  0.95715821  0.20659622  0.74935319     0.01030
C84         C  0.75251251  0.07002145  0.58558601     0.42420
C85         C  0.90029482  0.33196659  0.73148507    -0.07260
N86         N  0.78748649  0.14252066  0.86019124    -0.26010
H87         H  0.73481306  0.23779746  0.79933496     0.06570
N88         N  0.80053286  0.09778247  0.59504034    -0.47230
H89         H  0.93214868  0.35413330  0.70832767     0.06560
C90         C  0.94779551  0.26978323  0.91209234     0.42260
C91         C  0.91216280  0.20909593  0.59344227    -0.06760
Co92       Co  0.92377818  0.24844278  0.74940155     0.73820
N93         N  0.83178275  0.30448258  0.77941927    -0.46950
C94         C  0.82312465  0.00390705  0.75348146     0.42530
N95         N  0.00008626  0.21873257  0.77004856    -0.46940
Co96       Co  0.81865400  0.20903934  0.82128452     0.73890
C97         C  0.78112500  0.13230669  0.91155693    -0.07270
C98         C  0.72826345  0.06910749  0.63492082    -0.06830
N99         N  0.93668316  0.16407650  0.72536589    -0.26360
N100        N  0.68997056  0.13393539  0.73309339    -0.47120
H101        H  0.75102430  0.99099626  0.78926322     0.06530
C102        C  0.96514396  0.27122507  0.85929056    -0.07240
Cl103      Cl  0.84438770  0.17370086  0.75164272    -0.50240
C104        C  0.86226565  0.34178991  0.74928162     0.42290
H105        H  0.95980434  0.11183569  0.71159669     0.06500
N106        N  0.89839088  0.24716552  0.90930233    -0.46950
C107        C  0.07634313  0.75277997  0.41040453     0.42140
N108        N  0.10017219  0.76011840  0.33078859     0.01030
C109        C  0.33357759  0.89655715  0.23317565    -0.06850
H110        H  0.28477841  0.99453503  0.35011424     0.06520
C111        C  0.14333963  0.95715238  0.22320985    -0.07200
Co112      Co  0.20851639  0.81195434  0.32004743     0.74180
N113        N  0.24851237  0.91845797  0.32993360    -0.26380
Co114      Co  0.24819170  0.91768292  0.24892147     0.74070
C115        C  0.17828829  0.99970166  0.25324025     0.42240
N116        N  0.07362233  0.83157565  0.22110222     0.00640
N117        N  0.20463062  0.94951333  0.24714184     0.00750
N118        N  0.30649135  0.82799434  0.28030334    -0.47220
H119        H  0.15530540  0.79141785  0.44188856     0.06510
N120        N  0.23284663  0.87879212  0.35787855     0.01040
N121        N  0.24716526  0.91736594  0.16711495     0.00780
C122        C  0.26512537  0.93967952  0.08724302     0.42380
N123        N  0.05856390  0.79079744  0.24652293    -0.25830
C124        C  0.20325101  0.71680960  0.28049208    -0.06750
N125        N  0.06086741  0.74294888  0.36027419    -0.46940
N126        N  0.28395407  0.94536973  0.13612807    -0.47160
C127        C  0.16845490  0.67424008  0.25055404     0.42150
N128        N  0.27426737  0.84293022  0.27932478     0.01020
N129        N  0.09938333  0.75696245  0.16682338    -0.25850
N130        N  0.14106311  0.78107662  0.35837721    -0.26350
N131        N  0.11568263  0.79809934  0.14157762     0.00660
H132        H  0.05506123  0.68235365  0.14202849     0.06550
H133        H  0.18465680  0.89815950  0.06209511     0.06590
N134        N  0.28922938  0.88296914  0.25204938    -0.26400
N135        N  0.16279968  0.92829347  0.22150457    -0.26010
N136        N  0.14357991  0.72564951  0.25286347     0.01030
C137        C  0.26200378  0.93703962  0.41383366     0.42420
C138        C  0.01457352  0.77680039  0.26637444    -0.07260
N139        N  0.20508970  0.89573941  0.14185094    -0.26010
H140        H  0.11048484  0.95034574  0.20296344     0.06570
N141        N  0.24051399  0.88832806  0.40884355    -0.47230
H142        H  0.99332037  0.74445862  0.28892632     0.06560
C143        C  0.07951181  0.74347630  0.08132656     0.42260
C144        C  0.12964824  0.77765345  0.40955475    -0.06760
Co145      Co  0.09999665  0.75733854  0.24915166     0.73820
N146        N  0.04162676  0.84667287  0.22194931    -0.46950
C147        C  0.34479879  0.86003833  0.25213549     0.42530
N148        N  0.13219206  0.68203657  0.23505119    -0.46940
Co149      Co  0.13910056  0.86342884  0.18104527     0.73890
C150        C  0.21282206  0.90691782  0.09116669    -0.07270
C151        C  0.26742389  0.95707167  0.36196867    -0.06830
N152        N  0.18449269  0.74635271  0.28033934    -0.26360
N153        N  0.21572094  0.99271137  0.26604313    -0.47120
H154        H  0.35588379  0.92894379  0.21102764     0.06530
C155        C  0.07622896  0.72021731  0.13199314    -0.07240
Cl156      Cl  0.17409629  0.83752587  0.24960215    -0.50240
C157        C  0.00340041  0.81394606  0.24981615     0.42290
H158        H  0.23546557  0.72306438  0.30176875     0.06500
N159        N  0.10429293  0.79154865  0.09130159    -0.46950
C160        C  0.50020858  0.33404313  0.75046301     0.42140
N161        N  0.42378814  0.28368106  0.75688803     0.01030
C162        C  0.31873418  0.05149814  0.85593347    -0.06850
H163        H  0.43607178  0.08827851  0.69886219     0.06520
C164        C  0.30894824  0.10417142  0.59072076    -0.07200
Co165      Co  0.40468726  0.19780422  0.82166705     0.74180
N166        N  0.41443270  0.12933215  0.74798344    -0.26380
Co167      Co  0.33874941  0.09353282  0.74599814     0.74070
C168        C  0.33018497  0.07298546  0.58428056     0.42240
N169        N  0.31975142  0.21205825  0.64684853     0.00640
N170        N  0.33702836  0.09599197  0.66472377     0.00750
N171        N  0.36060623  0.11788646  0.90764673    -0.47220
H172        H  0.51973956  0.28633842  0.80103844     0.06510
N173        N  0.43890026  0.16845503  0.77751508     0.01040
N174        N  0.26323819  0.05992147  0.74499647     0.00780
C175        C  0.18739697  0.00772706  0.75075687     0.42380
N176        N  0.34535358  0.25271983  0.67381587    -0.25830
C177        C  0.36649992  0.23595637  0.91427022    -0.06750
N178        N  0.45548491  0.32621763  0.73739717    -0.46940
N179        N  0.23253544  0.01606927  0.76221688    -0.47160
C180        C  0.34092224  0.26359144  0.91678143     0.42150
N181        N  0.36309482  0.12969784  0.85737507     0.01020
N182        N  0.27306834  0.21746030  0.75493260    -0.25850
N183        N  0.44491268  0.26358381  0.78326845    -0.26350
N184        N  0.24698970  0.17671634  0.72833284     0.00660
H185        H  0.25426017  0.26299133  0.80055778     0.06550
H186        H  0.16553894  0.05671140  0.70614906     0.06590
N187        N  0.33917918  0.09114914  0.82684934    -0.26400
N188        N  0.31414399  0.11591535  0.64162567    -0.26010
N189        N  0.34920579  0.24980343  0.83660911     0.01030
C190        C  0.49431608  0.15753629  0.74241740     0.42420
C191        C  0.35730018  0.29013354  0.64165665    -0.07260
N192        N  0.24101677  0.08059164  0.72210437    -0.26010
H193        H  0.28721230  0.11111999  0.56317786     0.06570
N194        N  0.48631943  0.18621967  0.77529324    -0.47230
H195        H  0.37356351  0.32772542  0.65376307     0.06560
C196        C  0.19455444  0.19313501  0.76041985     0.42260
C197        C  0.49322421  0.29269884  0.78136980    -0.06760
Co198      Co  0.34836665  0.25184786  0.75551175     0.73820
N199        N  0.31258695  0.21955284  0.59763116    -0.46950
C200        C  0.33272631  0.06872583  0.90972434     0.42530
N201        N  0.33134806  0.27060077  0.86740322    -0.46940
Co202      Co  0.28015461  0.14627361  0.68428774     0.73890
C203        C  0.19289502  0.05053723  0.72409872    -0.07270
C204        C  0.44617182  0.11911768  0.72443671    -0.06830
N205        N  0.36978060  0.22895738  0.86270751    -0.26360
N206        N  0.34613496  0.06897904  0.63204013    -0.47120
H207        H  0.29819659  0.01509517  0.84014749     0.06530
C208        C  0.24312249  0.23073287  0.77690990    -0.07240
Cl209      Cl  0.34301863  0.17239758  0.75187109    -0.50240
C210        C  0.33569099  0.26785296  0.59088596     0.42290
H211        H  0.38110966  0.22427717  0.94565092     0.06500
N212        N  0.19982300  0.16097735  0.73040492    -0.46950
C213        C  0.06906129  0.32330717  0.40778194     0.42140
N214        N  0.13160892  0.35466579  0.35755248     0.01030
C215        C  0.11123393  0.31691309  0.08852703    -0.06850
H216        H  0.05679706  0.16487778  0.19554089     0.06520
C217        C  0.22787734  0.23315123  0.26749404    -0.07200
Co218      Co  0.09723245  0.33672804  0.24595256     0.74180
N219        N  0.08154356  0.23965519  0.21506062    -0.26380
Co220      Co  0.14842246  0.27901516  0.17895511     0.74070
C221        C  0.19008779  0.18623447  0.24740599     0.42240
N222        N  0.24919268  0.33689574  0.33508161     0.00640
N223        N  0.17602210  0.24142503  0.21980791     0.00750
N224        N  0.07596482  0.35210805  0.13434993    -0.47220
H225        H  0.01699925  0.29762554  0.33638620     0.06510
N226        N  0.06143124  0.26144878  0.24028949     0.01040
N227        N  0.21573297  0.31903235  0.14386638     0.00780
C228        C  0.27285244  0.33366991  0.08865170     0.42380
N229        N  0.22900561  0.35752927  0.36245340    -0.25830
C230        C  0.12461333  0.44418118  0.23229214    -0.06750
N231        N  0.11854093  0.34969688  0.40760577    -0.46940
N232        N  0.22428600  0.31385970  0.09439218    -0.47160
C233        C  0.16301206  0.49074164  0.25228765     0.42150
N234        N  0.10095658  0.33910849  0.16524762     0.01020
N235        N  0.26824827  0.43628899  0.28743300    -0.25850
N236        N  0.09354041  0.33372457  0.32591349    -0.26350
N237        N  0.28770218  0.41499506  0.25990068     0.00660
H238        H  0.29307260  0.51098991  0.30761118     0.06550
H239        H  0.33046678  0.36599522  0.15550048     0.06590
N240        N  0.12073812  0.31718273  0.13962377    -0.26400
N241        N  0.21616473  0.26495918  0.24815788    -0.26010
N242        N  0.17412984  0.43448996  0.28254322     0.01030
C243        C  0.00831471  0.18595542  0.24312831     0.42420
C244        C  0.23573410  0.35282711  0.41366923    -0.07260
N245        N  0.25588256  0.34111410  0.17226923    -0.26010
H246        H  0.25952799  0.24213200  0.29142255     0.06570
N247        N  0.01734091  0.23067235  0.25745760    -0.47230
H248        H  0.22543700  0.36828278  0.44564568     0.06560
C249        C  0.34044556  0.49066786  0.25677521     0.42260
C250        C  0.05297861  0.31394931  0.35353533    -0.06760
Co251      Co  0.20095545  0.39633739  0.32397962     0.73820
N252        N  0.27009665  0.31857493  0.36479128    -0.46950
C253        C  0.08172802  0.34031558  0.08514935     0.42530
N254        N  0.19211198  0.48202447  0.28356083    -0.46940
Co255      Co  0.25305547  0.33988811  0.25389780     0.73890
C256        C  0.29394703  0.35234209  0.14101002    -0.07270
C257        C  0.05085574  0.19180404  0.21499735    -0.06830
N258        N  0.13485128  0.41165547  0.25266638    -0.26360
N259        N  0.15917595  0.19408937  0.21818726    -0.47120
H260        H  0.11881237  0.29750316  0.05842894     0.06530
C261        C  0.29881098  0.48425332  0.28740978    -0.07240
Cl262      Cl  0.17497945  0.33803756  0.25069190    -0.50240
C263        C  0.26342453  0.32706445  0.41495118     0.42290
H264        H  0.09374611  0.43609613  0.20741176     0.06500
N265        N  0.33100190  0.44611403  0.24121963    -0.46950
C266        C  0.82834666  0.82561349  0.24797623     0.42140
N267        N  0.75244465  0.80172097  0.23908470     0.01030
C268        C  0.66468810  0.94371428  0.13276617    -0.06850
H269        H  0.76967479  0.01870057  0.28852249     0.06520
C270        C  0.65681226  0.88225770  0.40698972    -0.07200
Co271      Co  0.73589081  0.87060478  0.17626159     0.74180
N272        N  0.74798605  0.95219970  0.24568410    -0.26380
Co273      Co  0.67263201  0.91394167  0.24758831     0.74070
C274        C  0.68259351  0.93516074  0.40998427     0.42240
N275        N  0.65762331  0.77882328  0.35184084     0.00640
N276        N  0.67368086  0.91291363  0.32939033     0.00750
N277        N  0.70499982  0.91271967  0.08950115    -0.47220
H278        H  0.84966907  0.89418377  0.19951191     0.06510
N279        N  0.77238392  0.93571130  0.21893732     0.01040
N280        N  0.59693973  0.87284920  0.25010269     0.00780
C281        C  0.52089870  0.84933888  0.24395234     0.42380
N282        N  0.67947471  0.76176096  0.32170705    -0.25830
C283        C  0.70001017  0.79494436  0.08419168    -0.06750
N284        N  0.78322120  0.78928217  0.25898794    -0.46940
N285        N  0.56573062  0.88524213  0.23123873    -0.47160
C286        C  0.67612015  0.74203888  0.08021992     0.42150
N287        N  0.69694604  0.89800915  0.13850436     0.01020
N288        N  0.60150339  0.72367428  0.24495683    -0.25850
N289        N  0.77460406  0.84350283  0.21480560    -0.26350
N290        N  0.57813288  0.74003358  0.27369906     0.00660
H291        H  0.57793263  0.65748216  0.20072015     0.06550
H292        H  0.50009268  0.78198566  0.29381757     0.06590
N293        N  0.67386864  0.91602966  0.16524510    -0.26400
N294        N  0.65276601  0.87183662  0.35543385    -0.26010
N295        N  0.67556937  0.76317872  0.16019550     0.01030
C296        C  0.82703330  0.00497661  0.24901661     0.42420
C297        C  0.70177119  0.74429290  0.35119233    -0.07260
N298        N  0.57539768  0.83189585  0.27643513    -0.26010
H299        H  0.64175592  0.85617252  0.43812473     0.06570
N300        N  0.81983010  0.96641121  0.21953654    -0.47230
H301        H  0.72070459  0.72649218  0.33606322     0.06560
C302        C  0.52204167  0.67133727  0.24383832     0.42260
C303        C  0.82264827  0.86134026  0.21795196    -0.06760
Co304      Co  0.67694467  0.76181452  0.24125666     0.73820
N305        N  0.66424908  0.77386536  0.40243262    -0.46950
C306        C  0.68585479  0.94173006  0.08236773     0.42530
N307        N  0.66253967  0.72513069  0.12907430    -0.46940
Co308      Co  0.61536236  0.80528174  0.31562622     0.73890
C309        C  0.52718896  0.81425970  0.27449207    -0.07270
C310        C  0.77933878  0.99581479  0.26603247    -0.06830
N311        N  0.69859356  0.80463125  0.13518463    -0.26360
N312        N  0.69200446  0.95164133  0.36058313    -0.47120
H313        H  0.65158825  0.96782634  0.14483400     0.06530
C314        C  0.56919336  0.68031459  0.22459377    -0.07240
Cl315      Cl  0.67503841  0.83790720  0.24506292    -0.50240
C316        C  0.69276585  0.75304729  0.40478351     0.42290
H317        H  0.72036239  0.82159125  0.05477781     0.06500
N318        N  0.53065441  0.70973791  0.27435471    -0.46950
C319        C  0.87337133  0.09507546  0.25564700    -0.26640
C320        C  0.87365473  0.05113390  0.25276584    -0.14710
C321        C  0.91841742  0.05189838  0.25061387     0.35920
C322        C  0.96184933  0.09646671  0.24863519    -0.26080
C323        C  0.96159173  0.14041768  0.24923784    -0.15320
C324        C  0.91685483  0.13980114  0.25344565     0.37010
N325        N  0.91539597  0.18425149  0.25343779    -0.89570
H326        H  0.83902679  0.09463561  0.25719982     0.18120
H327        H  0.99613926  0.09680291  0.24658829     0.18110
N328        N  0.91964607  0.00740968  0.25082097    -0.88600
H329        H  0.87973466  0.17734968  0.25785808     0.35490
H330        H  0.92667231  0.19973892  0.21655630     0.40590
H331        H  0.90614451  0.99111818  0.28692522     0.40210
H332        H  0.95550749  0.01441903  0.24887852     0.35090
C333        C  0.38725503  0.58057268  0.25381152    -0.26640
C334        C  0.38681091  0.53639687  0.24871114    -0.14710
C335        C  0.43073183  0.53684999  0.23766671     0.35920
C336        C  0.47414200  0.58145570  0.23361926    -0.26080
C337        C  0.47482898  0.62552132  0.24130176    -0.15320
C338        C  0.43067692  0.62505867  0.25002058     0.37010
N339        N  0.43006222  0.66977388  0.25494296    -0.89570
H340        H  0.35357763  0.58052665  0.26092172     0.18120
H341        H  0.50790652  0.58158753  0.22691799     0.18110
N342        N  0.43165653  0.49227272  0.23248989    -0.88600
H343        H  0.39472820  0.66311598  0.26149748     0.35490
H344        H  0.44080661  0.68722442  0.21895720     0.40590
H345        H  0.42387367  0.47591732  0.26919442     0.40210
H346        H  0.46653617  0.49907933  0.22295605     0.35090
C347        C  0.26445182  0.31178808  0.51044505    -0.26640
C348        C  0.28470190  0.31540385  0.46077749    -0.14710
C349        C  0.32450722  0.30707717  0.45559924     0.35920
C350        C  0.34213187  0.29446308  0.49980685    -0.26080
C351        C  0.32075212  0.28925095  0.54884361    -0.15320
C352        C  0.28130907  0.29809679  0.55435897     0.37010
N353        N  0.25575496  0.29127350  0.60279821    -0.89570
H354        H  0.23380661  0.31767265  0.51495619     0.18120
H355        H  0.37173519  0.28689708  0.49560158     0.18110
N356        N  0.34711474  0.31136503  0.40571286    -0.88600
H357        H  0.26119467  0.32506687  0.61509729     0.35490
H358        H  0.26913542  0.27878670  0.63251158     0.40590
H359        H  0.32328762  0.28119158  0.38300931     0.40210
H360        H  0.37875328  0.30913127  0.40999044     0.35090
C361        C  0.35811458  0.31693757  0.99459294    -0.26640
C362        C  0.32399743  0.27908830  0.96264293    -0.14710
C363        C  0.27391986  0.26110225  0.97078568     0.35920
C364        C  0.25930601  0.28061790  0.01129965    -0.26080
C365        C  0.29303912  0.31780994  0.04474927    -0.15320
C366        C  0.34339270  0.33662331  0.03529783     0.37010
N367        N  0.38057770  0.37638192  0.06472022    -0.89570
H368        H  0.39660313  0.33206877  0.98712524     0.18120
H369        H  0.22057821  0.26547481  0.01688050     0.18110
N370        N  0.23663224  0.22235594  0.93966591    -0.88600
H371        H  0.38221016  0.36458646  0.10221171     0.35490
H372        H  0.37242352  0.40441281  0.06655469     0.40590
H373        H  0.25070827  0.20738371  0.91328704     0.40210
H374        H  0.21906226  0.23681565  0.91774412     0.35090
C375        C  0.31929688  0.02257189  0.05087295    -0.26640
C376        C  0.28885837  0.97243953  0.04261744    -0.14710
C377        C  0.27621835  0.95428270  0.99115369     0.35920
C378        C  0.29181214  0.98648840  0.94921950    -0.26080
C379        C  0.32009182  0.03707888  0.95685117    -0.15320
C380        C  0.33476047  0.05522207  0.00853908     0.37010
N381        N  0.36443293  0.10642925  0.01818746    -0.89570
H382        H  0.32894474  0.03653152  0.09058386     0.18120
H383        H  0.28076887  0.97122170  0.91035734     0.18110
N384        N  0.24686787  0.90292666  0.98166680    -0.88600
H385        H  0.37336829  0.11343954  0.05796985     0.35490
H386        H  0.34342132  0.12241408  0.00925547     0.40590
H387        H  0.26690712  0.88680597  0.99406425     0.40210
H388        H  0.24016251  0.89527632  0.94161688     0.35090
C389        C  0.34700550  0.03182055  0.51123277    -0.26640
C390        C  0.31330582  0.03401399  0.54466073    -0.14710
C391        C  0.26332504  0.99975504  0.53912539     0.35920
C392        C  0.24773006  0.96567456  0.49791404    -0.26080
C393        C  0.28110707  0.96541117  0.46244089    -0.15320
C394        C  0.33152028  0.99799788  0.46987825     0.37010
N395        N  0.36786254  0.99783012  0.43646855    -0.89570
H396        H  0.38545602  0.05748039  0.51631570     0.18120
H397        H  0.20920981  0.94079609  0.49189484     0.18110
N398        N  0.22857963  0.00056637  0.57458720    -0.88600
H399        H  0.38386097  0.03015547  0.41555377     0.35490
H400        H  0.35279324  0.96935014  0.40920041     0.40590
H401        H  0.23603006  0.99246396  0.61188152     0.40210
H402        H  0.19330765  0.97336766  0.56470009     0.35090
C403        C  0.14214706  0.09687708  0.25377888    -0.26640
C404        C  0.18784215  0.13898012  0.25139746    -0.14710
C405        C  0.23036302  0.13520287  0.25144262     0.35920
C406        C  0.22617533  0.08930349  0.25454846    -0.26080
C407        C  0.18048483  0.04710103  0.25598316    -0.15320
C408        C  0.13796969  0.05088291  0.25654173     0.37010
N409        N  0.09085216  0.00821598  0.26029874    -0.89570
H410        H  0.10960096  0.09995948  0.25388897     0.18120
H411        H  0.25879494  0.08639865  0.25350794     0.18110
N412        N  0.27747462  0.17758331  0.24599737    -0.88600
H413        H  0.06340634  0.01735187  0.26001427     0.35490
H414        H  0.08918135  0.99256877  0.29660235     0.40590
H415        H  0.27871065  0.19172111  0.20887397     0.40210
H416        H  0.30489027  0.16842453  0.24701578     0.35090
C417        C  0.20964840  0.62552419  0.24332099    -0.26640
C418        C  0.16630977  0.62689590  0.24875444    -0.14710
C419        C  0.12185479  0.58327671  0.25475927     0.35920
C420        C  0.12157622  0.53906707  0.25384456    -0.26080
C421        C  0.16489718  0.53775185  0.24894615    -0.15320
C422        C  0.20937775  0.58121457  0.24325273     0.37010
N423        N  0.25386545  0.58007984  0.23702173    -0.89570
H424        H  0.24372563  0.65910057  0.23892545     0.18120
H425        H  0.08760712  0.50557473  0.25914228     0.18110
N426        N  0.07752354  0.58407387  0.26393306    -0.88600
H427        H  0.28337316  0.61519205  0.23336859     0.35490
H428        H  0.25126212  0.56189328  0.20178873     0.40590
H429        H  0.08113816  0.60123049  0.30014580     0.40210
H430        H  0.04814780  0.54885757  0.26732496     0.35090
C431        C  0.38923540  0.81780394  0.22716187    -0.26640
C432        C  0.39091242  0.85953846  0.24795245    -0.14710
C433        C  0.43609087  0.89878397  0.26519434     0.35920
C434        C  0.47822017  0.89519124  0.26061487    -0.26080
C435        C  0.47634813  0.85299378  0.24090676    -0.15320
C436        C  0.43131625  0.81407169  0.22306837     0.37010
N437        N  0.42692350  0.77099994  0.19912347    -0.89570
H438        H  0.35481071  0.78782053  0.21356252     0.18120
H439        H  0.51243109  0.92478297  0.27522530     0.18110
N440        N  0.44049514  0.94125002  0.29080980    -0.88600
H441        H  0.40581560  0.74206170  0.22375636     0.35490
H442        H  0.46056650  0.77293912  0.19503309     0.40590
H443        H  0.40684924  0.93830736  0.29828526     0.40210
H444        H  0.45943473  0.97054255  0.26583225     0.35090
C445        C  0.96130839  0.86108143  0.25471353    -0.26640
C446        C  0.95804706  0.81557986  0.25599638    -0.14710
C447        C  0.91193854  0.77341535  0.26008273     0.35920
C448        C  0.87005757  0.77791112  0.26039228    -0.26080
C449        C  0.87335283  0.82336393  0.25578424    -0.15320
C450        C  0.91957148  0.86550785  0.25531389     0.37010
N451        N  0.92415230  0.91269640  0.25597645    -0.89570
H452        H  0.99675511  0.89350320  0.25296056     0.18120
H453        H  0.83459836  0.74550651  0.26149306     0.18110
N454        N  0.90735715  0.72617146  0.26129668    -0.88600
H455        H  0.96075568  0.93974373  0.25523936     0.35490
H456        H  0.91040596  0.91657189  0.29171849     0.40590
H457        H  0.91831961  0.71991543  0.22487842     0.40210
H458        H  0.87098371  0.69929574  0.26556874     0.35090
C459        C  0.02981322  0.32511533  0.94952528    -0.26640
C460        C  0.97981161  0.29390883  0.95831564    -0.14710
C461        C  0.96298178  0.28493502  0.01033253     0.35920
C462        C  0.99704892  0.30378851  0.05188286    -0.26080
C463        C  0.04723438  0.33134472  0.04221091    -0.15320
C464        C  0.06357826  0.34348366  0.99048697     0.37010
N465        N  0.11406026  0.37413052  0.97786683    -0.89570
H466        H  0.04372076  0.33506089  0.91033820     0.18120
H467        H  0.98461809  0.29467631  0.09182209     0.18110
N468        N  0.91201374  0.25518043  0.02089175    -0.88600
H469        H  0.12574438  0.35277059  0.95834089     0.35490
H470        H  0.13584362  0.38859940  0.01127286     0.40590
H471        H  0.89476010  0.27407080  0.00834498     0.40210
H472        H  0.90615060  0.25055300  0.06120521     0.35090
C473        C  0.95745942  0.26053551  0.49387440    -0.26640
C474        C  0.97536121  0.28349468  0.54229081    -0.14710
C475        C  0.02437893  0.32096355  0.54664432     0.35920
C476        C  0.05457142  0.33343923  0.50228872    -0.26080
C477        C  0.03684196  0.30884291  0.45419593    -0.15320
C478        C  0.98763183  0.27118482  0.45054408     0.37010
N479        N  0.96857229  0.24189500  0.40387750    -0.89570
H480        H  0.91988434  0.23185903  0.49045227     0.18120
H481        H  0.09211155  0.36221327  0.50537641     0.18110
N482        N  0.04388276  0.34478725  0.59613073    -0.88600
H483        H  0.93163502  0.21644482  0.40757351     0.35490
H484        H  0.98667074  0.22220358  0.39915390     0.40590
H485        H  0.02682789  0.36475024  0.60548012     0.40210
H486        H  0.08098121  0.36985239  0.59299586     0.35090
C487        C  0.67193303  0.99333289  0.01918900    -0.26640
C488        C  0.70355406  0.97922523  0.04106677    -0.14710
C489        C  0.75208008  0.00094859  0.02295094     0.35920
C490        C  0.76714932  0.03476010  0.98232115    -0.26080
C491        C  0.73519739  0.04772447  0.95947204    -0.15320
C492        C  0.68690989  0.02686944  0.97816035     0.37010
N493        N  0.65220194  0.03874467  0.95669481    -0.89570
H494        H  0.63492415  0.97727349  0.03318185     0.18120
H495        H  0.80397178  0.05063622  0.96776449     0.18110
N496        N  0.78614530  0.98899741  0.04608180    -0.88600
H497        H  0.62427967  0.00731998  0.93907138     0.35490
H498        H  0.66738122  0.06467348  0.92744307     0.40590
H499        H  0.79185314  0.00134135  0.08495869     0.40210
H500        H  0.81990143  0.00751137  0.02770225     0.35090
C501        C  0.74255720  0.98020549  0.47964227    -0.26640
C502        C  0.69730590  0.96670616  0.45707019    -0.14710
C503        C  0.66891420  0.98588039  0.47793538     0.35920
C504        C  0.68702576  0.01857473  0.52068604    -0.26080
C505        C  0.73307966  0.03323578  0.54243246    -0.15320
C506        C  0.76071183  0.01289672  0.52220590     0.37010
N507        N  0.80691047  0.02493523  0.54523859    -0.89570
H508        H  0.76406646  0.96533891  0.46362459     0.18120
H509        H  0.66541202  0.03349729  0.53621507     0.18110
N510        N  0.62183216  0.97316868  0.45695559    -0.88600
H511        H  0.82277168  0.00758790  0.52515309     0.35490
H512        H  0.80038388  0.01129582  0.58325228     0.40590
H513        H  0.61162648  0.94813089  0.42612678     0.40210
H514        H  0.62420145  0.00458710  0.44151749     0.35090
C515        C  0.09767187  0.22964346  0.76909525    -0.26640
C516        C  0.05533966  0.18397799  0.76720323    -0.14710
C517        C  0.05928511  0.14178743  0.76872640     0.35920
C518        C  0.10545797  0.14610307  0.76803934    -0.26080
C519        C  0.14772202  0.19164095  0.76698785    -0.15320
C520        C  0.14395828  0.23402476  0.76835460     0.37010
N521        N  0.18667187  0.28117405  0.76613048    -0.89570
H522        H  0.09472051  0.26212649  0.76827564     0.18120
H523        H  0.10850764  0.11363924  0.76783544     0.18110
N524        N  0.01655761  0.09476621  0.77111238    -0.88600
H525        H  0.17738941  0.30840474  0.76829568     0.35490
H526        H  0.20239744  0.28420179  0.72942783     0.40590
H527        H  0.99963398  0.09295097  0.80674842     0.40210
H528        H  0.02595358  0.06758556  0.77165786     0.35090
C529        C  0.58217793  0.20226303  0.76215430    -0.26640
C530        C  0.54346474  0.16331092  0.73561242    -0.14710
C531        C  0.55279125  0.13068796  0.70682829     0.35920
C532        C  0.59922294  0.13502091  0.71014052    -0.26080
C533        C  0.63691430  0.17200972  0.74025045    -0.15320
C534        C  0.62834883  0.20712935  0.76466109     0.37010
N535        N  0.66560581  0.24753586  0.79324310    -0.89570
H536        H  0.57656377  0.22897668  0.78279974     0.18120
H537        H  0.60571250  0.10882957  0.68966397     0.18110
N538        N  0.51551986  0.09321261  0.67477552    -0.88600
H539        H  0.66992185  0.27936135  0.77667992     0.35490
H540        H  0.65402756  0.24596658  0.83183419     0.40590
H541        H  0.50800856  0.11020287  0.64420158     0.40210
H542        H  0.52814795  0.07174566  0.65732330     0.35090
C543        C  0.01144590  0.73275954  0.95418581    -0.26640
C544        C  0.97735308  0.68320630  0.95195678    -0.14710
C545        C  0.97996318  0.65211008  0.98943044     0.35920
C546        C  0.01495700  0.67209253  0.03004142    -0.26080
C547        C  0.04774210  0.72232743  0.03385147    -0.15320
C548        C  0.04694240  0.75263944  0.99386938     0.37010
N549        N  0.08128762  0.80380837  0.99405775    -0.89570
H550        H  0.00996863  0.75637646  0.92478366     0.18120
H551        H  0.01559068  0.64811672  0.05943239     0.18110
N552        N  0.94747965  0.60057956  0.98815583    -0.88600
H553        H  0.07437248  0.82092029  0.96314744     0.35490
H554        H  0.11569592  0.80800708  0.98740083     0.40590
H555        H  0.92367817  0.58996547  0.95612868     0.40210
H556        H  0.92615300  0.59156365  0.02179268     0.35090
C557        C  0.04219845  0.70546622  0.49130270    -0.26640
C558        C  0.04327795  0.73935751  0.45586185    -0.14710
C559        C  0.00990089  0.75646638  0.46215182     0.35920
C560        C  0.97633738  0.73890129  0.50338254    -0.26080
C561        C  0.97543344  0.70519450  0.53899783    -0.15320
C562        C  0.00829552  0.68750208  0.53217023     0.37010
N563        N  0.00760970  0.65048779  0.56473682    -0.89570
H564        H  0.06687121  0.69145100  0.48608330     0.18120
H565        H  0.95154248  0.75278469  0.50847652     0.18110
N566        N  0.00948719  0.79223142  0.42838910    -0.88600
H567        H  0.00017593  0.62086965  0.54048919     0.35490
H568        H  0.97935871  0.63753874  0.59165826     0.40590
H569        H  0.03685967  0.80422533  0.40045165     0.40210
H570        H  0.01733212  0.82258899  0.45154950     0.35090
C571        C  0.86745797  0.91409781  0.76719004    -0.26640
C572        C  0.82434840  0.86979936  0.75933554    -0.14710
C573        C  0.78035825  0.86981868  0.74953745     0.35920
C574        C  0.78048599  0.91406350  0.74969009    -0.26080
C575        C  0.82371566  0.95810367  0.75744741    -0.15320
C576        C  0.86761862  0.95820598  0.76620214     0.37010
N577        N  0.91212950  0.00309285  0.77482235    -0.89570
H578        H  0.90137745  0.91450771  0.77405712     0.18120
H579        H  0.74694380  0.91428150  0.74213156     0.18110
N580        N  0.73567741  0.82523072  0.74008025    -0.88600
H581        H  0.94107585  0.99667717  0.78072692     0.35490
H582        H  0.90847102  0.01854680  0.80959754     0.40590
H583        H  0.73853045  0.81178585  0.70354922     0.40210
H584        H  0.70646311  0.83162256  0.73685410     0.35090
C585        C  0.81866806  0.43087349  0.72042142    -0.26640
C586        C  0.85816996  0.47471423  0.73882512    -0.14710
C587        C  0.89907462  0.47412698  0.76062173     0.35920
C588        C  0.89960066  0.43020987  0.76250763    -0.26080
C589        C  0.86024813  0.38681957  0.74375265    -0.15320
C590        C  0.81906962  0.38706240  0.72265690     0.37010
N591        N  0.77776216  0.34420275  0.70144964    -0.89570
H592        H  0.78692608  0.43028453  0.70383378     0.18120
H593        H  0.93078311  0.42969242  0.77930535     0.18110
N594        N  0.93997012  0.51780322  0.78088132    -0.88600
H595        H  0.74792060  0.33625901  0.72510300     0.35490
H596        H  0.78263054  0.31411878  0.70207024     0.40590
H597        H  0.95757346  0.53992975  0.74899706     0.40210
H598        H  0.96530540  0.51032661  0.79847009     0.35090
C599        C  0.09796732  0.87246520  0.75451509    -0.26640
C600        C  0.05352435  0.87188330  0.75693237    -0.14710
C601        C  0.05317603  0.91601722  0.75896621     0.35920
C602        C  0.09752140  0.95992501  0.75790822    -0.26080
C603        C  0.14209762  0.96057150  0.75551386    -0.15320
C604        C  0.14233377  0.91624903  0.75461030     0.37010
N605        N  0.18730504  0.91556681  0.75239018    -0.89570
H606        H  0.09821203  0.83854079  0.75370176     0.18120
H607        H  0.09724071  0.99383740  0.75884797     0.18110
N608        N  0.00790323  0.91612358  0.76122637    -0.88600
H609        H  0.18071471  0.88008602  0.74791820     0.35490
H610        H  0.20466681  0.92785245  0.78873603     0.40590
H611        H  0.98897044  0.90077628  0.72624436     0.40210
H612        H  0.01407496  0.95160736  0.76292541     0.35090
C613        C  0.63371498  0.43140846  0.74324608    -0.26640
C614        C  0.62992911  0.47350324  0.74157914    -0.14710
C615        C  0.58316903  0.46889390  0.73913306     0.35920
C616        C  0.54185591  0.42299652  0.74035066    -0.26080
C617        C  0.54551022  0.38104244  0.74458738    -0.15320
C618        C  0.59198472  0.38512198  0.74477730     0.37010
N619        N  0.59674586  0.34250102  0.74574531    -0.89570
H620        H  0.66943213  0.43470254  0.74368929     0.18120
H621        H  0.50643109  0.42034981  0.73924013     0.18110
N622        N  0.57601045  0.50966628  0.73364234    -0.88600
H623        H  0.63339544  0.35189534  0.74589193     0.35490
H624        H  0.58153438  0.32304729  0.71098637     0.40590
H625        H  0.59650360  0.53050100  0.70215718     0.40210
H626        H  0.58700074  0.53031075  0.76809632     0.35090
C627        C  0.72600679  0.67144028  0.00850843    -0.26640
C628        C  0.71938166  0.68010096  0.95632779    -0.14710
C629        C  0.69402192  0.70509752  0.94498354     0.35920
C630        C  0.67778097  0.72269092  0.98640326    -0.26080
C631        C  0.68593017  0.71549353  0.03862333    -0.15320
C632        C  0.70898269  0.68824738  0.04989726     0.37010
N633        N  0.71778264  0.68028209  0.10316298    -0.89570
H634        H  0.74570227  0.65251853  0.01697400     0.18120
H635        H  0.66031820  0.74378018  0.97797666     0.18110
N636        N  0.68710253  0.71485561  0.89173235    -0.88600
H637        H  0.73824004  0.66274948  0.10445008     0.35490
H638        H  0.68411257  0.65632817  0.11947633     0.40590
H639        H  0.72134492  0.73885595  0.87660608     0.40210
H640        H  0.66694217  0.73269389  0.89031525     0.35090
C641        C  0.76214841  0.71521056  0.49797340    -0.26640
C642        C  0.73553735  0.70664826  0.54404545    -0.14710
C643        C  0.69487569  0.71388522  0.54448161     0.35920
C644        C  0.68256432  0.73040008  0.49908719    -0.26080
C645        C  0.70928201  0.73906957  0.45292800    -0.15320
C646        C  0.75019972  0.73209925  0.45279337     0.37010
N647        N  0.78052017  0.74338196  0.40744441    -0.89570
H648        H  0.79353722  0.71017722  0.49770311     0.18120
H649        H  0.65108830  0.73527261  0.49936072     0.18110
N650        N  0.66528724  0.70320178  0.59034864    -0.88600
H651        H  0.80854651  0.73562864  0.41364889     0.35490
H652        H  0.79711097  0.78076632  0.40175120     0.40590
H653        H  0.64878960  0.66589441  0.59655048     0.40210
H654        H  0.63717695  0.71085573  0.58429759     0.35090
loop_ 
_geom_bond_atom_site_label_1 
_geom_bond_atom_site_label_2 
_geom_bond_distance 
_geom_bond_site_symmetry_2 
_ccdc_geom_bond_type 
C1           N19   1.349       .  A
C1           C38   1.463       .  S
C1          C572   1.481       .  S
N2           N19   1.323       .  A
N2           N24   1.317       .  A
N2          Co39   2.073       .  S
C3           N28   1.345       .  A
C3           C41   1.467       .  S
C3           H48   1.082       .  S
H4           C45   1.081   1_455  S
C5           N29   1.348       .  A
C5            C9   1.466       .  S
C5           H34   1.081       .  S
Co6          N24   2.078       .  S
Co6          N14   2.081       .  S
Co6          N46   2.083       .  S
Co6          N22   2.083       .  S
Co6         Cl50   2.447       .  S
N7           C45   1.338       .  A
N7           N14   1.319       .  A
N7           Co8   2.076       .  S
Co8          N11   2.090       .  S
Co8          N28   2.095       .  S
Co8          N15   2.081       .  S
Co8         Cl50   2.450       .  S
C9           N47   1.348       .  A
C9          C561   1.485       .  S
N10          N17   1.319       .  A
N10          N40   1.329       .  A
N10         Co43   2.107       .  S
N11          N29   1.322       .  A
N11          N47   1.325       .  A
N12          C41   1.351       .  A
N12          N22   1.322       .  A
H13          C38   1.081       .  S
N14          N35   1.324       .  A
N15          N33   1.320       .  A
N15          N20   1.324       .  A
C16          N20   1.351       .  A
C16          C44   1.467       .  S
C16         C586   1.491       .  S
N17          C32   1.335       .  A
N17         Co39   2.068       .  S
C18          N46   1.340       .  A
C18          C21   1.462       .  S
C18          H52   1.082       .  S
C21          N42   1.350       .  A
C21         C628   1.478       .  S
N22          N28   1.319       .  A
N23          C49   1.336       .  A
N23          N25   1.320       .  A
N23         Co39   2.072       .  S
N24          C38   1.338       .  A
N25          N53   1.325       .  A
N25         Co43   2.094       .  S
H26          C49   1.079       .  S
H27          C44   1.081       .  S
N29         Co43   2.103       .  S
N30          N42   1.324       .  A
N30          N46   1.318       .  A
N30         Co39   2.077       .  S
C31          N35   1.349   1_455  A
C31          C45   1.459   1_455  S
C31         C600   1.474       .  S
C32          C51   1.454       .  S
C32          H36   1.081       .  S
N33          C44   1.342       .  A
N33         Co43   2.097       .  S
C37          N53   1.352       .  A
C37          C49   1.460       .  S
C37         C614   1.479       .  S
Co39        Cl50   2.446       .  S
N40          C51   1.359       .  A
C41         C544   1.479       .  S
Co43        Cl50   2.457       .  S
C51         C642   1.486       .  S
C54          N72   1.352       .  A
C54          C91   1.458       .  S
C54         C474   1.479       .  S
N55          N72   1.327       .  A
N55          N77   1.318       .  A
N55         Co92   2.076       .  S
C56          N81   1.341       .  A
C56          C94   1.460       .  S
C56         H101   1.081   1_545  S
H57          C98   1.081       .  S
C58          N82   1.332       .  A
C58          C62   1.462       .  S
C58          H87   1.077       .  S
Co59         N77   2.070       .  S
Co59         N67   2.072       .  S
Co59         N99   2.075       .  S
Co59         N75   2.076       .  S
Co59       Cl103   2.424       .  S
N60          C98   1.349       .  A
N60          N67   1.320       .  A
N60         Co61   2.104       .  S
Co61         N64   2.093       .  S
Co61         N81   2.080       .  S
Co61         N68   2.090       .  S
Co61       Cl103   2.467       .  S
C62         N100   1.358       .  A
C62         C533   1.490       .  S
N63          N70   1.321       .  A
N63          N93   1.324       .  A
N63         Co96   2.088       .  S
N64          N82   1.319       .  A
N64         N100   1.327       .  A
N65          C94   1.347       .  A
N65          N75   1.322       .  A
H66          C91   1.082       .  S
N67          N88   1.320       .  A
N68          N86   1.323       .  A
N68          N73   1.324       .  A
C69          N73   1.346       .  A
C69          C97   1.463       .  S
C69         C491   1.476       .  S
N70          C85   1.343       .  A
N70         Co92   2.085       .  S
C71          N99   1.338       .  A
C71          C74   1.462   1_655  S
C71         H105   1.081       .  S
C74          N95   1.349       .  A
C74         C516   1.476       .  S
N75          N81   1.319       .  A
N76         C102   1.326       .  A
N76          N78   1.317       .  A
N76         Co92   2.049       .  S
N77          C91   1.331       .  A
N78         N106   1.331       .  A
N78         Co96   2.106       .  S
H79         C102   1.080   1_455  S
H80          C97   1.081       .  S
N82         Co96   2.075       .  S
N83          N95   1.322   1_655  A
N83          N99   1.317       .  A
N83         Co92   2.073       .  S
C84          N88   1.346       .  A
C84          C98   1.471       .  S
C84         C505   1.489       .  S
C85         C104   1.461       .  S
C85          H89   1.081       .  S
N86          C97   1.346       .  A
N86         Co96   2.099       .  S
C90         N106   1.361       .  A
C90         C102   1.451       .  S
C90         C460   1.487       .  S
Co92       Cl103   2.457       .  S
N93         C104   1.347       .  A
C94         C575   1.471   1_545  S
Co96       Cl103   2.445       .  S
C104        C589   1.474       .  S
C107        N125   1.347       .  A
C107        C144   1.467       .  S
C107        C558   1.484       .  S
N108        N125   1.325       .  A
N108        N130   1.321       .  A
N108       Co145   2.086       .  S
C109        N134   1.341       .  A
C109        C147   1.460       .  S
C109        H154   1.082       .  S
H110        C151   1.082       .  S
C111        N135   1.338       .  A
C111        C115   1.459       .  S
C111        H140   1.081       .  S
Co112       N130   2.106       .  S
Co112       N120   2.091       .  S
Co112       N152   2.082       .  S
Co112       N128   2.094       .  S
Co112      Cl156   2.447       .  S
N113        C151   1.335       .  A
N113        N120   1.321       .  A
N113       Co114   2.069       .  S
Co114       N117   2.080       .  S
Co114       N134   2.086       .  S
Co114       N121   2.089       .  S
Co114      Cl156   2.461       .  S
C115        N153   1.351       .  A
C115        C407   1.476   1_565  S
N116        N123   1.317       .  A
N116        N146   1.321       .  A
N116       Co149   2.079       .  S
N117        N135   1.318       .  A
N117        N153   1.323       .  A
N118        C147   1.349       .  A
N118        N128   1.324       .  A
H119        C144   1.081       .  S
N120        N141   1.328       .  A
N121        N139   1.319       .  A
N121        N126   1.329       .  A
C122        N126   1.353       .  A
C122        C150   1.459       .  S
C122        C376   1.483       .  S
N123        C138   1.338       .  A
N123       Co145   2.063       .  S
C124        N152   1.339       .  A
C124        C127   1.457       .  S
C124        H158   1.082       .  S
C127        N148   1.350       .  A
C127        C418   1.474       .  S
N128        N134   1.323       .  A
N129        C155   1.348       .  A
N129        N131   1.319       .  A
N129       Co145   2.103       .  S
N130        C144   1.348       .  A
N131        N159   1.319       .  A
N131       Co149   2.075       .  S
H132        C155   1.081       .  S
H133        C150   1.082       .  S
N135       Co149   2.074       .  S
N136        N148   1.323       .  A
N136        N152   1.320       .  A
N136       Co145   2.079       .  S
C137        N141   1.351       .  A
C137        C151   1.449       .  S
C137        C393   1.467       .  S
C138        C157   1.458       .  S
C138        H142   1.081   1_455  S
N139        C150   1.337       .  A
N139       Co149   2.080       .  S
C143        N159   1.348       .  A
C143        C155   1.475       .  S
C143        C547   1.496       .  S
Co145      Cl156   2.461       .  S
N146        C157   1.350       .  A
C147        C432   1.474       .  S
Co149      Cl156   2.429       .  S
C157        C446   1.473   1_455  S
C160        N178   1.352       .  A
C160        C197   1.461       .  S
C160        C617   1.479       .  S
N161        N178   1.323       .  A
N161        N183   1.320       .  A
N161       Co198   2.081       .  S
C162        N187   1.330       .  A
C162        C200   1.458       .  S
C162        H207   1.080       .  S
H163        C204   1.080       .  S
C164        N188   1.336       .  A
C164        C168   1.459       .  S
C164        H193   1.082       .  S
Co165       N183   2.087       .  S
Co165       N173   2.078       .  S
Co165       N205   2.094       .  S
Co165       N181   2.113       .  S
Co165      Cl209   2.456       .  S
N166        C204   1.344       .  A
N166        N173   1.318       .  A
N166       Co167   2.082       .  S
Co167       N170   2.080       .  S
Co167       N187   2.067       .  S
Co167       N174   2.080       .  S
Co167      Cl209   2.448       .  S
C168        N206   1.350       .  A
C168        C390   1.470       .  S
N169        N176   1.319       .  A
N169        N199   1.322       .  A
N169       Co202   2.074       .  S
N170        N188   1.318       .  A
N170        N206   1.324       .  A
N171        C200   1.362       .  A
N171        N181   1.333       .  A
H172        C197   1.081       .  S
N173        N194   1.318       .  A
N174        N192   1.318       .  A
N174        N179   1.323       .  A
C175        N179   1.350       .  A
C175        C203   1.460       .  S
C175        C603   1.479   1_545  S
N176        C191   1.344       .  A
N176       Co198   2.090       .  S
C177        N205   1.347       .  A
C177        C180   1.464       .  S
C177        H211   1.081       .  S
C180        N201   1.343       .  A
C180        C362   1.470       .  S
N181        N187   1.319       .  A
N182        C208   1.339       .  A
N182        N184   1.318       .  A
N182       Co198   2.072       .  S
N183        C197   1.340       .  A
N184        N212   1.321       .  A
N184       Co202   2.076       .  S
H185        C208   1.081       .  S
H186        C203   1.082       .  S
N188       Co202   2.075       .  S
N189        N201   1.320       .  A
N189        N205   1.321       .  A
N189       Co198   2.074       .  S
C190        N194   1.349       .  A
C190        C204   1.470       .  S
C190        C530   1.486       .  S
C191        C210   1.465       .  S
C191        H195   1.081       .  S
N192        C203   1.339       .  A
N192       Co202   2.074       .  S
C196        N212   1.349       .  A
C196        C208   1.460       .  S
C196        C519   1.472       .  S
Co198      Cl209   2.449       .  S
N199        C210   1.346       .  A
C200        C379   1.499       .  S
Co202      Cl209   2.438       .  S
C210        C351   1.474       .  S
C213        N231   1.362       .  A
C213        C250   1.451       .  S
C213        C477   1.487       .  S
N214        N231   1.332       .  A
N214        N236   1.318       .  A
N214       Co251   2.111       .  S
C215        N240   1.337       .  A
C215        C253   1.460       .  S
C215        H260   1.082       .  S
H216        C257   1.081       .  S
C217        N241   1.337       .  A
C217        C221   1.458       .  S
C217        H246   1.081       .  S
Co218       N236   2.047       .  S
Co218       N226   2.081       .  S
Co218       N258   2.072       .  S
Co218       N234   2.065       .  S
Co218      Cl262   2.447       .  S
N219        C257   1.338       .  A
N219        N226   1.318       .  A
N219       Co220   2.075       .  S
Co220       N223   2.084       .  S
Co220       N240   2.082       .  S
Co220       N227   2.075       .  S
Co220      Cl262   2.438       .  S
C221        N259   1.350       .  A
C221        C404   1.474       .  S
N222        N229   1.320       .  A
N222        N252   1.321       .  A
N222       Co255   2.078       .  S
N223        N241   1.319       .  A
N223        N259   1.324       .  A
N224        C253   1.347       .  A
N224        N234   1.323       .  A
H225        C250   1.079       .  S
N226        N247   1.324       .  A
N227        N245   1.317       .  A
N227        N232   1.319       .  A
C228        N232   1.351       .  A
C228        C256   1.474       .  S
C228        C365   1.496       .  S
N229        C244   1.346       .  A
N229       Co251   2.096       .  S
C230        N258   1.338       .  A
C230        C233   1.457       .  S
C230        H264   1.082       .  S
C233        N254   1.349       .  A
C233        C421   1.470       .  S
N234        N240   1.318       .  A
N235        C261   1.340       .  A
N235        N237   1.321       .  A
N235       Co251   2.091       .  S
N236        C250   1.325       .  A
N237        N265   1.324       .  A
N237       Co255   2.078       .  S
H238        C261   1.081       .  S
H239        C256   1.077       .  S
N241       Co255   2.071       .  S
N242        N254   1.324       .  A
N242        N258   1.320       .  A
N242       Co251   2.089       .  S
C243        N247   1.350       .  A
C243        C257   1.459       .  S
C243        C323   1.479   1_455  S
C244        C263   1.470       .  S
C244        H248   1.081       .  S
N245        C256   1.343       .  A
N245       Co255   2.087       .  S
C249        N265   1.350       .  A
C249        C261   1.462       .  S
C249        C334   1.482       .  S
Co251      Cl262   2.455       .  S
N252        C263   1.346       .  A
C253        C463   1.468       .  S
Co255      Cl262   2.448       .  S
C263        C348   1.488       .  S
C266        N284   1.350       .  A
C266        C303   1.460       .  S
C266        C449   1.477       .  S
N267        N284   1.324       .  A
N267        N289   1.317       .  A
N267       Co304   2.078       .  S
C268        N293   1.348       .  A
C268        C306   1.469       .  S
C268        H313   1.082       .  S
H269        C310   1.081   1_545  S
C270        N294   1.345       .  A
C270        C274   1.461       .  S
C270        H299   1.081       .  S
Co271       N289   2.069       .  S
Co271       N279   2.093       .  S
Co271       N311   2.093       .  S
Co271       N287   2.072       .  S
Co271      Cl315   2.439       .  S
N272        C310   1.339       .  A
N272        N279   1.319       .  A
N272       Co273   2.073       .  S
Co273       N276   2.090       .  S
Co273       N293   2.105       .  S
Co273       N280   2.086       .  S
Co273      Cl315   2.458       .  S
C274        N312   1.347       .  A
C274        C502   1.476       .  S
N275        N282   1.318       .  A
N275        N305   1.332       .  A
N275       Co308   2.119       .  S
N276        N294   1.322       .  A
N276        N312   1.325       .  A
N277        C306   1.347       .  A
N277        N287   1.321       .  A
H278        C303   1.081       .  S
N279        N300   1.324       .  A
N280        N298   1.323       .  A
N280        N285   1.325       .  A
C281        N285   1.350       .  A
C281        C309   1.460       .  S
C281        C435   1.476       .  S
N282        C297   1.331       .  A
N282       Co304   2.056       .  S
C283        N311   1.342       .  A
C283        C286   1.464       .  S
C283        H317   1.082       .  S
C286        N307   1.348       .  A
C286        C631   1.478       .  S
N287        N293   1.321       .  A
N288        C314   1.341       .  A
N288        N290   1.319       .  A
N288       Co304   2.077       .  S
N289        C303   1.336       .  A
N290        N318   1.323       .  A
N290       Co308   2.088       .  S
H291        C314   1.081       .  S
H292        C309   1.082       .  S
N294       Co308   2.091       .  S
N295        N307   1.323       .  A
N295        N311   1.319       .  A
N295       Co304   2.072       .  S
C296        N300   1.352   1_545  A
C296        C310   1.459   1_545  S
C296        C320   1.478       .  S
C297        C316   1.452       .  S
C297        H301   1.080       .  S
N298        C309   1.341       .  A
N298       Co308   2.098       .  S
C302        N318   1.350       .  A
C302        C314   1.463       .  S
C302        C337   1.481       .  S
Co304      Cl315   2.453       .  S
N305        C316   1.363       .  A
C306        C488   1.487       .  S
Co308      Cl315   2.451       .  S
C316        C645   1.491       .  S
C319        H326   1.083       .  S
C319        C320   1.404       .  A
C319        C324   1.406       .  A
C320        C321   1.408       .  A
C321        C322   1.402       .  A
C321        N328   1.435       .  S
C322        H327   1.083       .  S
C322        C323   1.402       .  A
C323        C324   1.413       .  A
C324        N325   1.438       .  S
N325        H329   1.046       .  S
N325        H330   1.046       .  S
N328        H331   1.045   1_545  S
N328        H332   1.045       .  S
C333        H340   1.083       .  S
C333        C334   1.403       .  A
C333        C338   1.404       .  A
C334        C335   1.415       .  A
C335        C336   1.406       .  A
C335        N342   1.438       .  S
C336        H341   1.083       .  S
C336        C337   1.403       .  A
C337        C338   1.411       .  A
C338        N339   1.437       .  S
N339        H343   1.046       .  S
N339        H344   1.045       .  S
N342        H345   1.046       .  S
N342        H346   1.046       .  S
C347        H354   1.083       .  S
C347        C348   1.403       .  A
C347        C352   1.404       .  A
C348        C349   1.419       .  A
C349        C350   1.406       .  A
C349        N356   1.438       .  S
C350        H355   1.084       .  S
C350        C351   1.398       .  A
C351        C352   1.419       .  A
C352        N353   1.439       .  S
N353        H357   1.045       .  S
N353        H358   1.042       .  S
N356        H359   1.045       .  S
N356        H360   1.046       .  S
C361        H368   1.084       .  S
C361        C362   1.402       .  A
C361        C366   1.405   1_556  A
C362        C363   1.411       .  A
C363        C364   1.396   1_556  A
C363        N370   1.440       .  S
C364        H369   1.083       .  S
C364        C365   1.410       .  A
C365        C366   1.421       .  A
C366        N367   1.430       .  S
N367        H371   1.042       .  S
N367        H372   1.046       .  S
N370        H373   1.043       .  S
N370        H374   1.046       .  S
C375        H382   1.083       .  S
C375        C376   1.407   1_545  A
C375        C380   1.416       .  A
C376        C377   1.405   1_554  A
C377        C378   1.400       .  A
C377        N384   1.439       .  S
C378        H383   1.078       .  S
C378        C379   1.410   1_565  A
C379        C380   1.417   1_556  A
C380        N381   1.437       .  S
N381        H385   1.046       .  S
N381        H386   1.045       .  S
N384        H387   1.046       .  S
N384        H388   1.046       .  S
C389        H396   1.084       .  S
C389        C390   1.398       .  A
C389        C394   1.401   1_545  A
C390        C391   1.412   1_545  A
C391        C392   1.403       .  A
C391        N398   1.438   1_565  S
C392        H397   1.084       .  S
C392        C393   1.399       .  A
C393        C394   1.418       .  A
C394        N395   1.438       .  S
N395        H399   1.045   1_565  S
N395        H400   1.044       .  S
N398        H401   1.046   1_545  S
N398        H402   1.046   1_545  S
C403        H410   1.084       .  S
C403        C404   1.402       .  A
C403        C408   1.405       .  A
C404        C405   1.412       .  A
C405        C406   1.402       .  A
C405        N412   1.438       .  S
C406        H411   1.084       .  S
C406        C407   1.402       .  A
C407        C408   1.412       .  A
C408        N409   1.438       .  S
N409        H413   1.046       .  S
N409        H414   1.046   1_545  S
N412        H415   1.046       .  S
N412        H416   1.046       .  S
C417        H424   1.084       .  S
C417        C418   1.404       .  A
C417        C422   1.405       .  A
C418        C419   1.412       .  A
C419        C420   1.402       .  A
C419        N426   1.438       .  S
C420        H425   1.084       .  S
C420        C421   1.401       .  A
C421        C422   1.409       .  A
C422        N423   1.438       .  S
N423        H427   1.046       .  S
N423        H428   1.046       .  S
N426        H429   1.046       .  S
N426        H430   1.046       .  S
C431        H438   1.084       .  S
C431        C432   1.401       .  A
C431        C436   1.401       .  A
C432        C433   1.417       .  A
C433        C434   1.401       .  A
C433        N440   1.438       .  S
C434        H439   1.084       .  S
C434        C435   1.402       .  A
C435        C436   1.415       .  A
C436        N437   1.437       .  S
N437        H441   1.045       .  S
N437        H442   1.043       .  S
N440        H443   1.042       .  S
N440        H444   1.045       .  S
C445        H452   1.084       .  S
C445        C446   1.400       .  A
C445        C450   1.399       .  A
C446        C447   1.413       .  A
C447        C448   1.405       .  A
C447        N454   1.437       .  S
C448        H453   1.083       .  S
C448        C449   1.403       .  A
C449        C450   1.410       .  A
C450        N451   1.434       .  S
N451        H455   1.046       .  S
N451        H456   1.045       .  S
N454        H457   1.046       .  S
N454        H458   1.046       .  S
C459        H466   1.080       .  S
C459        C460   1.410   1_455  A
C459        C464   1.393       .  A
C460        C461   1.411   1_556  A
C461        C462   1.410       .  A
C461        N468   1.437       .  S
C462        H467   1.084       .  S
C462        C463   1.407   1_655  A
C463        C464   1.406   1_554  A
C464        N465   1.439       .  S
N465        H469   1.046       .  S
N465        H470   1.044   1_556  S
N468        H471   1.045       .  S
N468        H472   1.046       .  S
C473        H480   1.084       .  S
C473        C474   1.397       .  A
C473        C478   1.395       .  A
C474        C475   1.414   1_655  A
C475        C476   1.412       .  A
C475        N482   1.437       .  S
C476        H481   1.083       .  S
C476        C477   1.406       .  A
C477        C478   1.419   1_455  A
C478        N479   1.438       .  S
N479        H483   1.046       .  S
N479        H484   1.046       .  S
N482        H485   1.045       .  S
N482        H486   1.046       .  S
C487        H494   1.084       .  S
C487        C488   1.403       .  A
C487        C492   1.408   1_564  A
C488        C489   1.418   1_565  A
C489        C490   1.405   1_554  A
C489        N496   1.438   1_545  S
C490        H495   1.084       .  S
C490        C491   1.398       .  A
C491        C492   1.418       .  A
C492        N493   1.438       .  S
N493        H497   1.046       .  S
N493        H498   1.044       .  S
N496        H499   1.046   1_565  S
N496        H500   1.046   1_565  S
C501        H508   1.084       .  S
C501        C502   1.397       .  A
C501        C506   1.405   1_565  A
C502        C503   1.418       .  A
C503        C504   1.408   1_565  A
C503        N510   1.438       .  S
C504        H509   1.084       .  S
C504        C505   1.403       .  A
C505        C506   1.419       .  A
C506        N507   1.439       .  S
N507        H511   1.046       .  S
N507        H512   1.046       .  S
N510        H513   1.044       .  S
N510        H514   1.046   1_565  S
C515        H522   1.083       .  S
C515        C516   1.404       .  A
C515        C520   1.403       .  A
C516        C517   1.410       .  A
C517        C518   1.401       .  A
C517        N524   1.435       .  S
C518        H523   1.084       .  S
C518        C519   1.401       .  A
C519        C520   1.412       .  A
C520        N521   1.437       .  S
N521        H525   1.046       .  S
N521        H526   1.046       .  S
N524        H527   1.046   1_455  S
N524        H528   1.046       .  S
C529        H536   1.084       .  S
C529        C530   1.402       .  A
C529        C534   1.394       .  A
C530        C531   1.413       .  A
C531        C532   1.411       .  A
C531        N538   1.435       .  S
C532        H537   1.083       .  S
C532        C533   1.407       .  A
C533        C534   1.415       .  A
C534        N535   1.430       .  S
N535        H539   1.046       .  S
N535        H540   1.046       .  S
N538        H541   1.046       .  S
N538        H542   1.046       .  S
C543        H550   1.085       .  S
C543        C544   1.399   1_455  A
C543        C548   1.402       .  A
C544        C545   1.414       .  A
C545        C546   1.410   1_656  A
C545        N552   1.438       .  S
C546        H551   1.082       .  S
C546        C547   1.409       .  A
C547        C548   1.420   1_554  A
C548        N549   1.439       .  S
N549        H553   1.046       .  S
N549        H554   1.046       .  S
N552        H555   1.044       .  S
N552        H556   1.045   1_556  S
C557        H564   1.084       .  S
C557        C558   1.402       .  A
C557        C562   1.407       .  A
C558        C559   1.419       .  A
C559        C560   1.407   1_455  A
C559        N566   1.439       .  S
C560        H565   1.084       .  S
C560        C561   1.402       .  A
C561        C562   1.420   1_655  A
C562        N563   1.440       .  S
N563        H567   1.046       .  S
N563        H568   1.042   1_455  S
N566        H569   1.043       .  S
N566        H570   1.046       .  S
C571        H578   1.083       .  S
C571        C572   1.403       .  A
C571        C576   1.401       .  A
C572        C573   1.416       .  A
C573        C574   1.406       .  A
C573        N580   1.438       .  S
C574        H579   1.084       .  S
C574        C575   1.400       .  A
C575        C576   1.407       .  A
C576        N577   1.437   1_565  S
N577        H581   1.045   1_545  S
N577        H582   1.046       .  S
N580        H583   1.046       .  S
N580        H584   1.046       .  S
C585        H592   1.082       .  S
C585        C586   1.407       .  A
C585        C590   1.402       .  A
C586        C587   1.418       .  A
C587        C588   1.407       .  A
C587        N594   1.438       .  S
C588        H593   1.084       .  S
C588        C589   1.400       .  A
C589        C590   1.414       .  A
C590        N591   1.439       .  S
N591        H595   1.045       .  S
N591        H596   1.043       .  S
N594        H597   1.045       .  S
N594        H598   1.046       .  S
C599        H606   1.083       .  S
C599        C600   1.401       .  A
C599        C604   1.403       .  A
C600        C601   1.410       .  A
C601        C602   1.405       .  A
C601        N608   1.438       .  S
C602        H607   1.083       .  S
C602        C603   1.405       .  A
C603        C604   1.414       .  A
C604        N605   1.438       .  S
N605        H609   1.046       .  S
N605        H610   1.045       .  S
N608        H611   1.046   1_455  S
N608        H612   1.046       .  S
C613        H620   1.084       .  S
C613        C614   1.404       .  A
C613        C618   1.408       .  A
C614        C615   1.416       .  A
C615        C616   1.395       .  A
C615        N622   1.432       .  S
C616        H621   1.084       .  S
C616        C617   1.401       .  A
C617        C618   1.413       .  A
C618        N619   1.438       .  S
N619        H623   1.046       .  S
N619        H624   1.046       .  S
N622        H625   1.045       .  S
N622        H626   1.042       .  S
C627        H634   1.084       .  S
C627        C628   1.400   1_554  A
C627        C632   1.405       .  A
C628        C629   1.415       .  A
C629        C630   1.406       .  A
C629        N636   1.438       .  S
C630        H635   1.084       .  S
C630        C631   1.400   1_556  A
C631        C632   1.415       .  A
C632        N633   1.438       .  S
N633        H637   1.046       .  S
N633        H638   1.045       .  S
N636        H639   1.046       .  S
N636        H640   1.046       .  S
C641        H648   1.084       .  S
C641        C642   1.398       .  A
C641        C646   1.405       .  A
C642        C643   1.418       .  A
C643        C644   1.409       .  A
C643        N650   1.437       .  S
C644        H649   1.084       .  S
C644        C645   1.401       .  A
C645        C646   1.421       .  A
C646        N647   1.437       .  S
N647        H651   1.046       .  S
N647        H652   1.046       .  S
N650        H653   1.046       .  S
N650        H654   1.046       .  S
